*SPEF "ieee 1481-1999"
*DESIGN "adder16"
*DATE "20:54:46 Friday November 28, 2025"
*VENDOR "The OpenROAD Project"
*PROGRAM "OpenROAD"
*VERSION "edf00dff99f6c40d67a30c0e22a8191c5d2ed9d6"
*DESIGN_FLOW "NAME_SCOPE LOCAL" "PIN_CAP NONE"
*DIVIDER /
*DELIMITER :
*BUS_DELIMITER []
*T_UNIT 1 NS
*C_UNIT 1 PF
*R_UNIT 1 OHM
*L_UNIT 1 HENRY

*NAME_MAP
*3 a[0]
*4 a[10]
*5 a[11]
*6 a[12]
*7 a[13]
*8 a[14]
*9 a[15]
*10 a[1]
*11 a[2]
*12 a[3]
*13 a[4]
*14 a[5]
*15 a[6]
*16 a[7]
*17 a[8]
*18 a[9]
*19 b[0]
*20 b[10]
*21 b[11]
*22 b[12]
*23 b[13]
*24 b[14]
*25 b[15]
*26 b[1]
*27 b[2]
*28 b[3]
*29 b[4]
*30 b[5]
*31 b[6]
*32 b[7]
*33 b[8]
*34 b[9]
*35 carry
*36 clk
*37 en
*38 rst_n
*39 sum[0]
*40 sum[10]
*41 sum[11]
*42 sum[12]
*43 sum[13]
*44 sum[14]
*45 sum[15]
*46 sum[1]
*47 sum[2]
*48 sum[3]
*49 sum[4]
*50 sum[5]
*51 sum[6]
*52 sum[7]
*53 sum[8]
*54 sum[9]
*55 _000_
*56 _001_
*57 _002_
*58 _003_
*59 _004_
*60 _005_
*61 _006_
*62 _007_
*63 _008_
*64 _009_
*65 _010_
*66 _011_
*67 _012_
*68 _013_
*69 _014_
*70 _015_
*71 _016_
*72 _017_
*73 _018_
*74 _019_
*75 _020_
*76 _021_
*77 _022_
*78 _023_
*79 _024_
*80 _025_
*81 _026_
*82 _027_
*83 _028_
*84 _029_
*85 _030_
*86 _031_
*87 _032_
*88 _033_
*89 _034_
*90 _035_
*91 _036_
*92 _037_
*93 _038_
*94 _039_
*95 _040_
*96 _041_
*97 _042_
*98 _043_
*99 _044_
*100 _045_
*101 _046_
*102 _047_
*103 _048_
*104 _049_
*105 _050_
*106 _051_
*107 _052_
*108 _053_
*109 _054_
*110 _055_
*111 _056_
*112 _057_
*113 _058_
*114 _059_
*115 _060_
*116 _061_
*117 _062_
*118 _063_
*119 _064_
*120 _065_
*121 _066_
*122 _067_
*123 _068_
*124 _069_
*125 _070_
*126 _071_
*127 _072_
*128 _073_
*129 _074_
*130 _075_
*131 _076_
*132 _077_
*133 _078_
*134 _079_
*135 _080_
*136 _081_
*137 _082_
*138 _083_
*139 _084_
*140 _085_
*141 _086_
*142 _087_
*143 _088_
*144 _089_
*145 _090_
*146 _091_
*147 _092_
*148 _093_
*149 _094_
*150 _095_
*151 _096_
*152 _097_
*153 _098_
*154 _099_
*155 _100_
*156 _101_
*157 _102_
*158 _103_
*159 _104_
*160 _105_
*161 _106_
*162 _107_
*163 _108_
*164 _109_
*165 _110_
*166 _111_
*167 clknet_0_clk
*168 clknet_1_0__leaf_clk
*169 clknet_1_1__leaf_clk
*170 net1
*171 net10
*172 net11
*173 net12
*174 net13
*175 net14
*176 net15
*177 net16
*178 net17
*179 net18
*180 net19
*181 net2
*182 net20
*183 net21
*184 net22
*185 net23
*186 net24
*187 net25
*188 net26
*189 net27
*190 net28
*191 net29
*192 net3
*193 net30
*194 net31
*195 net32
*196 net33
*197 net34
*198 net35
*199 net36
*200 net37
*201 net38
*202 net39
*203 net4
*204 net40
*205 net41
*206 net42
*207 net43
*208 net44
*209 net45
*210 net46
*211 net47
*212 net48
*213 net49
*214 net5
*215 net50
*216 net51
*217 net52
*218 net53
*219 net54
*220 net55
*221 net56
*222 net57
*223 net58
*224 net6
*225 net64
*226 net66
*227 net67
*228 net68
*229 net69
*230 net7
*231 net70
*232 net71
*233 net72
*234 net73
*235 net74
*236 net75
*237 net76
*238 net77
*239 net78
*240 net79
*241 net8
*242 net80
*243 net81
*244 net9
*245 FILLER_0_104
*246 FILLER_0_26
*247 FILLER_0_29
*248 FILLER_0_3
*249 FILLER_0_35
*250 FILLER_0_54
*251 FILLER_0_57
*252 FILLER_0_7
*253 FILLER_0_70
*254 FILLER_0_82
*255 FILLER_0_91
*256 FILLER_10_14
*257 FILLER_10_18
*258 FILLER_10_22
*259 FILLER_10_29
*260 FILLER_10_39
*261 FILLER_10_7
*262 FILLER_10_71
*263 FILLER_10_83
*264 FILLER_10_85
*265 FILLER_10_93
*266 FILLER_11_10
*267 FILLER_11_18
*268 FILLER_11_55
*269 FILLER_11_57
*270 FILLER_11_69
*271 FILLER_11_81
*272 FILLER_11_85
*273 FILLER_12_107
*274 FILLER_12_29
*275 FILLER_12_3
*276 FILLER_12_41
*277 FILLER_12_53
*278 FILLER_12_77
*279 FILLER_12_83
*280 FILLER_12_85
*281 FILLER_13_107
*282 FILLER_13_12
*283 FILLER_13_21
*284 FILLER_13_3
*285 FILLER_13_33
*286 FILLER_13_41
*287 FILLER_13_47
*288 FILLER_13_55
*289 FILLER_13_57
*290 FILLER_13_79
*291 FILLER_13_91
*292 FILLER_13_95
*293 FILLER_14_16
*294 FILLER_14_29
*295 FILLER_14_35
*296 FILLER_14_51
*297 FILLER_14_6
*298 FILLER_14_79
*299 FILLER_14_83
*300 FILLER_14_85
*301 FILLER_14_91
*302 FILLER_15_42
*303 FILLER_15_50
*304 FILLER_15_6
*305 FILLER_15_72
*306 FILLER_15_80
*307 FILLER_16_29
*308 FILLER_16_47
*309 FILLER_16_6
*310 FILLER_16_83
*311 FILLER_16_85
*312 FILLER_17_15
*313 FILLER_17_3
*314 FILLER_17_62
*315 FILLER_17_73
*316 FILLER_17_84
*317 FILLER_17_96
*318 FILLER_18_15
*319 FILLER_18_23
*320 FILLER_18_29
*321 FILLER_18_3
*322 FILLER_18_34
*323 FILLER_18_42
*324 FILLER_18_57
*325 FILLER_18_62
*326 FILLER_18_83
*327 FILLER_18_85
*328 FILLER_1_11
*329 FILLER_1_3
*330 FILLER_1_64
*331 FILLER_1_89
*332 FILLER_2_3
*333 FILLER_2_7
*334 FILLER_2_82
*335 FILLER_3_3
*336 FILLER_3_37
*337 FILLER_3_41
*338 FILLER_3_57
*339 FILLER_3_66
*340 FILLER_3_74
*341 FILLER_3_86
*342 FILLER_4_103
*343 FILLER_4_15
*344 FILLER_4_27
*345 FILLER_4_3
*346 FILLER_4_44
*347 FILLER_4_50
*348 FILLER_4_58
*349 FILLER_4_69
*350 FILLER_4_74
*351 FILLER_4_82
*352 FILLER_4_85
*353 FILLER_4_93
*354 FILLER_5_21
*355 FILLER_5_27
*356 FILLER_5_35
*357 FILLER_5_83
*358 FILLER_5_9
*359 FILLER_6_107
*360 FILLER_6_13
*361 FILLER_6_29
*362 FILLER_6_3
*363 FILLER_6_35
*364 FILLER_6_56
*365 FILLER_6_62
*366 FILLER_6_83
*367 FILLER_6_85
*368 FILLER_7_10
*369 FILLER_7_3
*370 FILLER_7_52
*371 FILLER_7_65
*372 FILLER_7_70
*373 FILLER_7_83
*374 FILLER_7_89
*375 FILLER_8_112
*376 FILLER_8_29
*377 FILLER_8_35
*378 FILLER_8_45
*379 FILLER_8_57
*380 FILLER_8_69
*381 FILLER_8_79
*382 FILLER_8_83
*383 FILLER_8_85
*384 FILLER_9_19
*385 FILLER_9_31
*386 FILLER_9_43
*387 FILLER_9_55
*388 FILLER_9_57
*389 FILLER_9_6
*390 FILLER_9_65
*391 FILLER_9_94
*392 PHY_EDGE_ROW_0_Left_19
*393 PHY_EDGE_ROW_0_Right_0
*394 PHY_EDGE_ROW_10_Left_29
*395 PHY_EDGE_ROW_10_Right_10
*396 PHY_EDGE_ROW_11_Left_30
*397 PHY_EDGE_ROW_11_Right_11
*398 PHY_EDGE_ROW_12_Left_31
*399 PHY_EDGE_ROW_12_Right_12
*400 PHY_EDGE_ROW_13_Left_32
*401 PHY_EDGE_ROW_13_Right_13
*402 PHY_EDGE_ROW_14_Left_33
*403 PHY_EDGE_ROW_14_Right_14
*404 PHY_EDGE_ROW_15_Left_34
*405 PHY_EDGE_ROW_15_Right_15
*406 PHY_EDGE_ROW_16_Left_35
*407 PHY_EDGE_ROW_16_Right_16
*408 PHY_EDGE_ROW_17_Left_36
*409 PHY_EDGE_ROW_17_Right_17
*410 PHY_EDGE_ROW_18_Left_37
*411 PHY_EDGE_ROW_18_Right_18
*412 PHY_EDGE_ROW_1_Left_20
*413 PHY_EDGE_ROW_1_Right_1
*414 PHY_EDGE_ROW_2_Left_21
*415 PHY_EDGE_ROW_2_Right_2
*416 PHY_EDGE_ROW_3_Left_22
*417 PHY_EDGE_ROW_3_Right_3
*418 PHY_EDGE_ROW_4_Left_23
*419 PHY_EDGE_ROW_4_Right_4
*420 PHY_EDGE_ROW_5_Left_24
*421 PHY_EDGE_ROW_5_Right_5
*422 PHY_EDGE_ROW_6_Left_25
*423 PHY_EDGE_ROW_6_Right_6
*424 PHY_EDGE_ROW_7_Left_26
*425 PHY_EDGE_ROW_7_Right_7
*426 PHY_EDGE_ROW_8_Left_27
*427 PHY_EDGE_ROW_8_Right_8
*428 PHY_EDGE_ROW_9_Left_28
*429 PHY_EDGE_ROW_9_Right_9
*430 TAP_TAPCELL_ROW_0_38
*431 TAP_TAPCELL_ROW_0_39
*432 TAP_TAPCELL_ROW_0_40
*433 TAP_TAPCELL_ROW_0_41
*434 TAP_TAPCELL_ROW_10_60
*435 TAP_TAPCELL_ROW_10_61
*436 TAP_TAPCELL_ROW_11_62
*437 TAP_TAPCELL_ROW_11_63
*438 TAP_TAPCELL_ROW_12_64
*439 TAP_TAPCELL_ROW_12_65
*440 TAP_TAPCELL_ROW_13_66
*441 TAP_TAPCELL_ROW_13_67
*442 TAP_TAPCELL_ROW_14_68
*443 TAP_TAPCELL_ROW_14_69
*444 TAP_TAPCELL_ROW_15_70
*445 TAP_TAPCELL_ROW_15_71
*446 TAP_TAPCELL_ROW_16_72
*447 TAP_TAPCELL_ROW_16_73
*448 TAP_TAPCELL_ROW_17_74
*449 TAP_TAPCELL_ROW_17_75
*450 TAP_TAPCELL_ROW_18_76
*451 TAP_TAPCELL_ROW_18_77
*452 TAP_TAPCELL_ROW_18_78
*453 TAP_TAPCELL_ROW_18_79
*454 TAP_TAPCELL_ROW_1_42
*455 TAP_TAPCELL_ROW_1_43
*456 TAP_TAPCELL_ROW_2_44
*457 TAP_TAPCELL_ROW_2_45
*458 TAP_TAPCELL_ROW_3_46
*459 TAP_TAPCELL_ROW_3_47
*460 TAP_TAPCELL_ROW_4_48
*461 TAP_TAPCELL_ROW_4_49
*462 TAP_TAPCELL_ROW_5_50
*463 TAP_TAPCELL_ROW_5_51
*464 TAP_TAPCELL_ROW_6_52
*465 TAP_TAPCELL_ROW_6_53
*466 TAP_TAPCELL_ROW_7_54
*467 TAP_TAPCELL_ROW_7_55
*468 TAP_TAPCELL_ROW_8_56
*469 TAP_TAPCELL_ROW_8_57
*470 TAP_TAPCELL_ROW_9_58
*471 TAP_TAPCELL_ROW_9_59
*472 _112_
*473 _113_
*474 _114_
*475 _115_
*476 _116_
*477 _117_
*478 _118_
*479 _119_
*480 _120_
*481 _121_
*482 _122_
*483 _123_
*484 _124_
*485 _125_
*486 _126_
*487 _127_
*488 _128_
*489 _129_
*490 _130_
*491 _131_
*492 _132_
*493 _133_
*494 _134_
*495 _135_
*496 _136_
*497 _137_
*498 _138_
*499 _139_
*500 _140_
*501 _141_
*502 _142_
*503 _143_
*504 _144_
*505 _145_
*506 _146_
*507 _147_
*508 _148_
*509 _149_
*510 _150_
*511 _151_
*512 _152_
*513 _153_
*514 _154_
*515 _155_
*516 _156_
*517 _157_
*518 _158_
*519 _159_
*520 _160_
*521 _161_
*522 _162_
*523 _163_
*524 _164_
*525 _165_
*526 _166_
*527 _167_
*528 _168_
*529 _169_
*530 _170_
*531 _171_
*532 _172_
*533 _173_
*534 _174_
*535 _175_
*536 _176_
*537 _177_
*538 _178_
*539 _179_
*540 _180_
*541 _181_
*542 _182_
*543 _183_
*544 _184_
*545 _185_
*546 _186_
*547 _187_
*548 _188_
*549 _189_
*550 _190_
*551 _191_
*552 _192_
*553 _193_
*554 _194_
*555 _195_
*556 _196_
*557 _197_
*558 _198_
*559 _199_
*560 _200_
*561 _201_
*562 _202_
*563 _203_
*564 _204_
*565 _205_
*566 _206_
*567 _207_
*568 _208_
*569 _209_
*570 _210_
*571 _211_
*572 _212_
*573 _213_
*574 _214_
*575 _215_
*576 _216_
*577 _217_
*578 _218_
*579 _219_
*580 _220_
*581 _221_
*582 _222_
*583 _223_
*584 _224_
*585 _225_
*586 _226_
*587 _227_
*588 _228_
*589 _229_
*590 _230_
*591 _231_
*592 _232_
*593 _233_
*594 _234_
*595 _235_
*596 _236_
*597 _237_
*598 _238_
*599 _239_
*600 _240_
*601 clkbuf_0_clk
*602 clkbuf_1_0__f_clk
*603 clkbuf_1_1__f_clk
*604 clkload0
*605 fanout52
*606 fanout53
*607 fanout54
*608 fanout55
*609 hold11
*610 hold12
*611 hold13
*612 hold14
*613 hold15
*614 hold16
*615 hold17
*616 hold18
*617 hold19
*618 hold20
*619 hold21
*620 hold22
*621 hold23
*622 hold24
*623 hold25
*624 hold26
*625 input1
*626 input10
*627 input11
*628 input12
*629 input13
*630 input14
*631 input15
*632 input16
*633 input17
*634 input18
*635 input19
*636 input2
*637 input20
*638 input21
*639 input22
*640 input23
*641 input24
*642 input25
*643 input26
*644 input27
*645 input28
*646 input29
*647 input3
*648 input30
*649 input31
*650 input32
*651 input33
*652 input34
*653 input4
*654 input5
*655 input6
*656 input7
*657 input8
*658 input9
*659 output35
*660 output36
*661 output37
*662 output38
*663 output39
*664 output40
*665 output41
*666 output42
*667 output43
*668 output44
*669 output45
*670 output46
*671 output47
*672 output48
*673 output49
*674 output50
*675 output51
*676 rebuffer1
*677 rebuffer2
*678 rebuffer3
*679 rebuffer9

*PORTS
a[0] I
a[10] I
a[11] I
a[12] I
a[13] I
a[14] I
a[15] I
a[1] I
a[2] I
a[3] I
a[4] I
a[5] I
a[6] I
a[7] I
a[8] I
a[9] I
b[0] I
b[10] I
b[11] I
b[12] I
b[13] I
b[14] I
b[15] I
b[1] I
b[2] I
b[3] I
b[4] I
b[5] I
b[6] I
b[7] I
b[8] I
b[9] I
carry O
clk I
en I
rst_n I
sum[0] O
sum[10] O
sum[11] O
sum[12] O
sum[13] O
sum[14] O
sum[15] O
sum[1] O
sum[2] O
sum[3] O
sum[4] O
sum[5] O
sum[6] O
sum[7] O
sum[8] O
sum[9] O

*D_NET *3 0.00068554
*CONN
*P a[0] I
*I *625:A I *D sky130_fd_sc_hd__buf_1
*CAP
1 a[0] 0.000198235
2 *625:A 0.000198235
3 *625:A sum[3] 8.06147e-05
4 *625:A *613:A 0.000130212
5 *625:A *19:13 7.82427e-05
*RES
1 a[0] *625:A 48.4875 
*END

*D_NET *4 0.000548249
*CONN
*P a[10] I
*I *636:A I *D sky130_fd_sc_hd__buf_1
*CAP
1 a[10] 0.000255706
2 *636:A 0.000255706
3 *636:A *634:A 0
4 *636:A *21:17 3.12475e-05
5 *636:A *181:10 5.58873e-06
*RES
1 a[10] *636:A 47.7832 
*END

*D_NET *5 0.00189106
*CONN
*P a[11] I
*I *647:A I *D sky130_fd_sc_hd__clkbuf_1
*CAP
1 a[11] 0.000728017
2 *647:A 0
3 *5:15 0.000728017
4 *5:15 sum[10] 7.23789e-05
5 *5:15 *567:A 1.94812e-05
6 *5:15 *570:A2 0
7 *5:15 *634:A 5.99691e-05
8 *5:15 *54:14 4.39278e-05
9 *5:15 *88:25 4.75206e-05
10 *5:15 *192:8 5.50106e-05
11 *5:15 *216:16 0.000136738
*RES
1 a[11] *5:15 35.1965 
2 *5:15 *647:A 23 
*END

*D_NET *6 0.00105213
*CONN
*P a[12] I
*I *653:A I *D sky130_fd_sc_hd__clkbuf_1
*CAP
1 a[12] 0.000526063
2 *653:A 0.000526063
3 *653:A sum[12] 0
4 *653:A *23:11 0
*RES
1 a[12] *653:A 49.165 
*END

*D_NET *7 0.00125374
*CONN
*P a[13] I
*I *654:A I *D sky130_fd_sc_hd__clkbuf_1
*CAP
1 a[13] 0.000599366
2 *654:A 0
3 *7:9 0.000599366
4 *7:9 sum[13] 0
5 *7:9 *8:31 0
6 *7:9 *23:11 0
7 *7:9 *143:10 0
8 *7:9 *214:8 5.50106e-05
*RES
1 a[13] *7:9 27.7393 
2 *7:9 *654:A 23 
*END

*D_NET *8 0.00430386
*CONN
*P a[14] I
*I *655:A I *D sky130_fd_sc_hd__clkbuf_1
*CAP
1 a[14] 0.00075103
2 *655:A 0
3 *8:31 0.000714727
4 *8:17 0.00146576
5 *8:17 *473:B 0.000442771
6 *8:17 *9:9 0
7 *8:17 *35:8 0.000183733
8 *8:17 *136:18 3.41998e-06
9 *8:17 *196:18 5.31757e-05
10 *8:17 *230:16 0.000270682
11 *8:31 sum[13] 9.85586e-06
12 *8:31 *25:13 0
13 *8:31 *37:13 0.000254519
14 *8:31 *184:8 1.05441e-05
15 *8:31 *185:12 0.000143645
16 *8:31 *204:18 0
17 *7:9 *8:31 0
*RES
1 a[14] *8:17 35.6936 
2 *8:17 *8:31 49.824 
3 *8:31 *655:A 23 
*END

*D_NET *9 0.00375295
*CONN
*P a[15] I
*I *656:A I *D sky130_fd_sc_hd__clkbuf_1
*CAP
1 a[15] 0.00128887
2 *656:A 0
3 *9:15 3.23616e-05
4 *9:9 0.00132123
5 *9:9 *608:A 8.4047e-05
6 *9:9 *25:13 0
7 *9:9 *103:18 0.000265472
8 *9:9 *137:12 9.71073e-05
9 *9:9 *139:6 0.00010018
10 *9:9 *139:21 0.000128723
11 *9:9 *140:8 5.91638e-05
12 *9:9 *141:8 9.16459e-05
13 *9:9 *196:20 0.000152668
14 *9:9 *198:27 1.05984e-05
15 *9:9 *230:16 0
16 *9:15 *665:A 8.9458e-05
17 *9:15 *141:16 3.14214e-05
18 *8:17 *9:9 0
*RES
1 a[15] *9:9 38.4071 
2 *9:9 *9:15 31.2014 
3 *9:15 *656:A 23 
*END

*D_NET *10 0.0016107
*CONN
*P a[1] I
*I *657:A I *D sky130_fd_sc_hd__clkbuf_1
*CAP
1 a[1] 0.00063166
2 *657:A 0
3 *10:13 0.00063166
4 *10:13 sum[5] 8.49003e-05
5 *10:13 *670:A 0.000181535
6 *10:13 *671:A 0
7 *10:13 *14:15 1.01436e-05
8 *10:13 *26:11 0
9 *10:13 *50:8 0
10 *10:13 *171:12 1.40958e-05
11 *10:13 *173:10 5.67058e-05
*RES
1 a[1] *10:13 27.7962 
2 *10:13 *657:A 23 
*END

*D_NET *11 0.00251684
*CONN
*P a[2] I
*I *658:A I *D sky130_fd_sc_hd__buf_1
*CAP
1 a[2] 0.000879105
2 *658:A 0
3 *11:15 0.000879105
4 *11:15 sum[1] 8.06147e-05
5 *11:15 *540:B2 0.000183325
6 *11:15 *19:13 0.0002246
7 *11:15 *27:15 7.22515e-05
8 *11:15 *46:10 2.47015e-05
9 *11:15 *48:8 0.000137831
10 *11:15 *151:10 1.22803e-05
11 *11:15 *178:8 2.30292e-05
*RES
1 a[2] *11:15 39.5939 
2 *11:15 *658:A 23 
*END

*D_NET *12 0.000802567
*CONN
*P a[3] I
*I *626:A I *D sky130_fd_sc_hd__buf_1
*CAP
1 a[3] 0.000401284
2 *626:A 0.000401284
3 *626:A *671:A 0
4 *626:A *14:15 0
*RES
1 a[3] *626:A 46.7 
*END

*D_NET *13 0.00116243
*CONN
*P a[4] I
*I *627:A I *D sky130_fd_sc_hd__clkbuf_1
*CAP
1 a[4] 0.000478755
2 *627:A 0.000478755
3 *627:A sum[4] 0
4 *627:A *644:A 0
5 *627:A *173:10 0.000185434
6 *627:A *189:10 1.94812e-05
*RES
1 a[4] *627:A 48.7507 
*END

*D_NET *14 0.00100443
*CONN
*P a[5] I
*I *628:A I *D sky130_fd_sc_hd__clkbuf_1
*CAP
1 a[5] 0.000497144
2 *628:A 0
3 *14:15 0.000497144
4 *14:15 sum[4] 0
5 *626:A *14:15 0
6 *10:13 *14:15 1.01436e-05
*RES
1 a[5] *14:15 27.1179 
2 *14:15 *628:A 23 
*END

*D_NET *15 0.000999442
*CONN
*P a[6] I
*I *629:A I *D sky130_fd_sc_hd__buf_6
*CAP
1 a[6] 0.000472216
2 *629:A 0.000472216
3 *629:A sum[8] 0
4 *629:A *646:A 0
5 *629:A *191:29 5.50106e-05
*RES
1 a[6] *629:A 48.0879 
*END

*D_NET *16 0.00105914
*CONN
*P a[7] I
*I *630:A I *D sky130_fd_sc_hd__buf_6
*CAP
1 a[7] 0.000476562
2 *630:A 0.000476562
3 *630:A *32:11 9.84851e-05
4 *630:A *175:12 7.53384e-06
*RES
1 a[7] *630:A 47.7979 
*END

*D_NET *17 0.000981
*CONN
*P a[8] I
*I *631:A I *D sky130_fd_sc_hd__clkbuf_1
*CAP
1 a[8] 0.000342949
2 *631:A 0
3 *17:15 0.000342949
4 *17:15 *18:15 0
5 *17:15 *33:17 0.000260156
6 *17:15 *36:11 3.49463e-05
*RES
1 a[8] *17:15 29.5117 
2 *17:15 *631:A 23 
*END

*D_NET *18 0.000959326
*CONN
*P a[9] I
*I *632:A I *D sky130_fd_sc_hd__clkbuf_1
*CAP
1 a[9] 0.00037451
2 *632:A 0
3 *18:15 0.00037451
4 *18:15 *521:A 4.00259e-06
5 *18:15 *650:A 4.40799e-05
6 *18:15 *33:17 2.12457e-05
7 *18:15 *89:10 9.84794e-05
8 *18:15 *177:6 1.40958e-05
9 *18:15 *177:14 2.30292e-05
10 *18:15 *216:16 5.37348e-06
11 *17:15 *18:15 0
*RES
1 a[9] *18:15 29.1419 
2 *18:15 *632:A 23 
*END

*D_NET *19 0.00163023
*CONN
*P b[0] I
*I *633:A I *D sky130_fd_sc_hd__buf_1
*CAP
1 b[0] 0.000455771
2 *633:A 0
3 *19:13 0.000455771
4 *19:13 sum[3] 0
5 *19:13 *27:15 0.000109032
6 *19:13 *48:8 9.92485e-05
7 *19:13 *219:38 0.000207565
8 *625:A *19:13 7.82427e-05
9 *11:15 *19:13 0.0002246
*RES
1 b[0] *19:13 29.4145 
2 *19:13 *633:A 23 
*END

*D_NET *20 0.000708828
*CONN
*P b[10] I
*I *634:A I *D sky130_fd_sc_hd__buf_1
*CAP
1 b[10] 0.000284069
2 *634:A 0.000284069
3 *634:A sum[10] 0
4 *634:A *21:17 2.12457e-05
5 *634:A *181:14 5.94746e-05
6 *636:A *634:A 0
7 *5:15 *634:A 5.99691e-05
*RES
1 b[10] *634:A 49.1918 
*END

*D_NET *21 0.00070451
*CONN
*P b[11] I
*I *635:A I *D sky130_fd_sc_hd__buf_1
*CAP
1 b[11] 0.000326008
2 *635:A 0
3 *21:17 0.000326008
4 *21:17 *181:10 0
5 *634:A *21:17 2.12457e-05
6 *636:A *21:17 3.12475e-05
*RES
1 b[11] *21:17 27.8627 
2 *21:17 *635:A 23 
*END

*D_NET *22 0.00111735
*CONN
*P b[12] I
*I *637:A I *D sky130_fd_sc_hd__clkbuf_1
*CAP
1 b[12] 0.000556361
2 *637:A 0.000556361
3 *637:A sum[11] 0
4 *637:A sum[12] 0
5 *637:A *201:14 4.6318e-06
*RES
1 b[12] *637:A 49.7864 
*END

*D_NET *23 0.00138589
*CONN
*P b[13] I
*I *638:A I *D sky130_fd_sc_hd__clkbuf_1
*CAP
1 b[13] 0.000617017
2 *638:A 0
3 *23:11 0.000617017
4 *23:11 *479:B 2.4754e-05
5 *23:11 *531:A 0
6 *23:11 *531:B 6.26126e-05
7 *23:11 *143:10 6.44887e-05
8 *653:A *23:11 0
9 *7:9 *23:11 0
*RES
1 b[13] *23:11 28.3607 
2 *23:11 *638:A 23 
*END

*D_NET *24 0.0013257
*CONN
*P b[14] I
*I *639:A I *D sky130_fd_sc_hd__clkbuf_1
*CAP
1 b[14] 0.000597214
2 *639:A 0.000597214
3 *639:A sum[14] 0
4 *639:A *25:13 0
5 *639:A *37:13 4.67227e-05
6 *639:A *184:8 1.19591e-05
7 *639:A *196:18 5.50106e-05
8 *639:A *230:8 1.7581e-05
*RES
1 b[14] *639:A 49.7864 
*END

*D_NET *25 0.00233356
*CONN
*P b[15] I
*I *640:A I *D sky130_fd_sc_hd__clkbuf_1
*CAP
1 b[15] 0.00114323
2 *640:A 0
3 *25:13 0.00114323
4 *25:13 sum[13] 0
5 *25:13 sum[14] 3.56594e-05
6 *25:13 *665:A 0
7 *25:13 *204:18 1.14452e-05
8 *25:13 *230:8 0
9 *639:A *25:13 0
10 *8:31 *25:13 0
11 *9:9 *25:13 0
*RES
1 b[15] *25:13 49.0779 
2 *25:13 *640:A 38 
*END

*D_NET *26 0.00206149
*CONN
*P b[1] I
*I *641:A I *D sky130_fd_sc_hd__clkbuf_1
*CAP
1 b[1] 0.000861253
2 *641:A 0
3 *26:11 0.000861253
4 *26:11 sum[1] 8.97484e-05
5 *26:11 sum[5] 9.36312e-05
6 *26:11 *486:B 3.20914e-05
7 *26:11 *488:B 5.21127e-05
8 *26:11 *217:36 5.27858e-05
9 *26:11 *241:8 1.86166e-05
10 *10:13 *26:11 0
*RES
1 b[1] *26:11 27.5657 
2 *26:11 *641:A 23 
*END

*D_NET *27 0.00273983
*CONN
*P b[2] I
*I *642:A I *D sky130_fd_sc_hd__buf_1
*CAP
1 b[2] 0.000749688
2 *642:A 0
3 *27:15 0.000749688
4 *27:15 sum[1] 0
5 *27:15 *487:A 0
6 *27:15 *489:A 0.000184527
7 *27:15 *489:D 6.9805e-05
8 *27:15 *540:B2 8.51935e-05
9 *27:15 *147:10 5.12254e-05
10 *27:15 *149:14 1.94812e-05
11 *27:15 *149:25 0.000110883
12 *27:15 *149:38 9.84794e-05
13 *27:15 *187:10 0.000185783
14 *27:15 *187:33 7.65379e-05
15 *27:15 *219:44 0.000177259
16 *11:15 *27:15 7.22515e-05
17 *19:13 *27:15 0.000109032
*RES
1 b[2] *27:15 36.2295 
2 *27:15 *642:A 23 
*END

*D_NET *28 0.00176758
*CONN
*P b[3] I
*I *643:A I *D sky130_fd_sc_hd__clkbuf_1
*CAP
1 b[3] 0.000772681
2 *643:A 0
3 *28:15 0.000772681
4 *28:15 *644:A 0
5 *28:15 *645:A 0
6 *28:15 *164:10 2.32101e-05
7 *28:15 *164:20 3.83059e-05
8 *28:15 *165:12 1.14452e-05
9 *28:15 *173:10 2.53471e-05
10 *28:15 *190:16 0.000123913
*RES
1 b[3] *28:15 29.7279 
2 *28:15 *643:A 23 
*END

*D_NET *29 0.00132501
*CONN
*P b[4] I
*I *644:A I *D sky130_fd_sc_hd__clkbuf_1
*CAP
1 b[4] 0.000529966
2 *644:A 0.000529966
3 *644:A *173:10 0.000230604
4 *644:A *173:20 1.14452e-05
5 *644:A *188:8 2.30292e-05
6 *627:A *644:A 0
7 *28:15 *644:A 0
*RES
1 b[4] *644:A 49.8486 
*END

*D_NET *30 0.00106212
*CONN
*P b[5] I
*I *645:A I *D sky130_fd_sc_hd__clkbuf_1
*CAP
1 b[5] 0.000407789
2 *645:A 0.000407789
3 *645:A sum[6] 0
4 *645:A *53:10 0.000236394
5 *645:A *215:14 1.01436e-05
6 *28:15 *645:A 0
*RES
1 b[5] *645:A 47.7979 
*END

*D_NET *31 0.000832074
*CONN
*P b[6] I
*I *646:A I *D sky130_fd_sc_hd__buf_6
*CAP
1 b[6] 0.000416037
2 *646:A 0.000416037
3 *646:A sum[7] 0
4 *629:A *646:A 0
*RES
1 b[6] *646:A 46.7 
*END

*D_NET *32 0.00140647
*CONN
*P b[7] I
*I *648:A I *D sky130_fd_sc_hd__buf_6
*CAP
1 b[7] 0.00062751
2 *648:A 0
3 *32:11 0.00062751
4 *32:11 sum[7] 0
5 *32:11 *175:12 5.29672e-05
6 *630:A *32:11 9.84851e-05
*RES
1 b[7] *32:11 27.8014 
2 *32:11 *648:A 23 
*END

*D_NET *33 0.000823851
*CONN
*P b[8] I
*I *649:A I *D sky130_fd_sc_hd__clkbuf_1
*CAP
1 b[8] 0.000271225
2 *649:A 0
3 *33:17 0.000271225
4 *17:15 *33:17 0.000260156
5 *18:15 *33:17 2.12457e-05
*RES
1 b[8] *33:17 27.5105 
2 *33:17 *649:A 23 
*END

*D_NET *34 0.000810524
*CONN
*P b[9] I
*I *650:A I *D sky130_fd_sc_hd__clkbuf_1
*CAP
1 b[9] 0.00031039
2 *650:A 0.00031039
3 *650:A sum[10] 0
4 *650:A sum[9] 2.12457e-05
5 *650:A *54:14 0
6 *650:A *88:21 0
7 *650:A *195:10 0.000124419
8 *18:15 *650:A 4.40799e-05
*RES
1 b[9] *650:A 49.5439 
*END

*D_NET *35 0.00315339
*CONN
*P carry O
*I *659:X O *D sky130_fd_sc_hd__buf_2
*CAP
1 carry 0.000510921
2 *659:X 0.000538881
3 *35:8 0.0010498
4 carry sum[15] 9.65101e-05
5 carry *537:B1 0
6 carry *584:RESET_B 4.9808e-05
7 carry *609:A 0.000200273
8 carry *37:13 0
9 carry *198:8 3.55215e-05
10 carry *219:27 4.51974e-05
11 carry *226:12 0
12 carry *228:10 0.000238512
13 *35:8 *473:B 6.22712e-05
14 *35:8 *136:18 0.00014196
15 *8:17 *35:8 0.000183733
*RES
1 *659:X *35:8 45.7679 
2 *35:8 carry 16.7315 
*END

*D_NET *36 0.00702999
*CONN
*P clk I
*I *601:A I *D sky130_fd_sc_hd__clkbuf_16
*CAP
1 clk 0.0027384
2 *601:A 0
3 *36:11 0.0027384
4 *36:11 *526:A2 0.000206568
5 *36:11 *591:RESET_B 2.11066e-05
6 *36:11 *603:A 0
7 *36:11 *75:10 0.000138718
8 *36:11 *167:12 0
9 *36:11 *174:33 0.000177778
10 *36:11 *217:75 8.4047e-05
11 *36:11 *217:77 0.000333286
12 *36:11 *217:79 0.00055674
13 *17:15 *36:11 3.49463e-05
*RES
1 clk *36:11 46.8641 
2 *36:11 *601:A 23 
*END

*D_NET *37 0.00377175
*CONN
*P en I
*I *651:A I *D sky130_fd_sc_hd__clkbuf_1
*CAP
1 en 0.00115237
2 *651:A 0
3 *37:13 0.00115237
4 *37:13 *609:A 8.44976e-05
5 *37:13 *185:12 0.000448031
6 *37:13 *230:8 4.94435e-05
7 *37:13 *230:16 1.59094e-05
8 *37:13 *230:35 0.000567881
9 carry *37:13 0
10 *639:A *37:13 4.67227e-05
11 *8:31 *37:13 0.000254519
*RES
1 en *37:13 27.972 
2 *37:13 *651:A 23 
*END

*D_NET *38 0.000912704
*CONN
*P rst_n I
*I *609:A I *D sky130_fd_sc_hd__dlygate4sd3_1
*CAP
1 rst_n 0.00028983
2 *609:A 0.00028983
3 *609:A *198:8 4.82745e-05
4 carry *609:A 0.000200273
5 *37:13 *609:A 8.44976e-05
*RES
1 rst_n *609:A 49.9819 
*END

*D_NET *39 0.000588891
*CONN
*P sum[0] O
*I *660:X O *D sky130_fd_sc_hd__buf_2
*CAP
1 sum[0] 0.000185191
2 *660:X 0.000185191
3 sum[0] sum[2] 8.73764e-05
4 sum[0] sum[3] 7.86455e-05
5 sum[0] *660:A 5.24877e-05
*RES
1 *660:X sum[0] 47.5169 
*END

*D_NET *40 0.000586211
*CONN
*P sum[10] O
*I *661:X O *D sky130_fd_sc_hd__buf_2
*CAP
1 sum[10] 0.000235562
2 *661:X 0.000235562
3 sum[10] sum[9] 1.5289e-05
4 sum[10] *570:A2 1.4796e-05
5 sum[10] *54:14 1.26232e-05
6 *634:A sum[10] 0
7 *650:A sum[10] 0
8 *5:15 sum[10] 7.23789e-05
*RES
1 *661:X sum[10] 47.5169 
*END

*D_NET *41 0.00111074
*CONN
*P sum[11] O
*I *662:X O *D sky130_fd_sc_hd__buf_2
*CAP
1 sum[11] 0.000555368
2 *662:X 0.000555368
3 *637:A sum[11] 0
*RES
1 *662:X sum[11] 49.2064 
*END

*D_NET *42 0.00112256
*CONN
*P sum[12] O
*I *663:X O *D sky130_fd_sc_hd__buf_2
*CAP
1 sum[12] 0.000532927
2 *663:X 0.000532927
3 sum[12] *143:10 5.67058e-05
4 *637:A sum[12] 0
5 *653:A sum[12] 0
*RES
1 *663:X sum[12] 49.4964 
*END

*D_NET *43 0.00112997
*CONN
*P sum[13] O
*I *664:X O *D sky130_fd_sc_hd__buf_2
*CAP
1 sum[13] 0.000560058
2 *664:X 0.000560058
3 sum[13] sum[14] 0
4 *7:9 sum[13] 0
5 *8:31 sum[13] 9.85586e-06
6 *25:13 sum[13] 0
*RES
1 *664:X sum[13] 49.2064 
*END

*D_NET *44 0.00114859
*CONN
*P sum[14] O
*I *665:X O *D sky130_fd_sc_hd__buf_2
*CAP
1 sum[14] 0.000556466
2 *665:X 0.000556466
3 sum[13] sum[14] 0
4 *639:A sum[14] 0
5 *25:13 sum[14] 3.56594e-05
*RES
1 *665:X sum[14] 49.2064 
*END

*D_NET *45 0.00125893
*CONN
*P sum[15] O
*I *666:X O *D sky130_fd_sc_hd__buf_2
*CAP
1 sum[15] 0.000172994
2 *666:X 0.000125032
3 *45:8 0.000298026
4 sum[15] sum[2] 8.73764e-05
5 *45:8 sum[2] 0.000130212
6 *45:8 *217:14 0.000348774
7 carry sum[15] 9.65101e-05
*RES
1 *666:X *45:8 42.5468 
2 *45:8 sum[15] 8.9296 
*END

*D_NET *46 0.00108049
*CONN
*P sum[1] O
*I *667:X O *D sky130_fd_sc_hd__buf_2
*CAP
1 sum[1] 0.000147005
2 *667:X 0.000151952
3 *46:10 0.000298956
4 *46:10 *151:10 0.000287511
5 *11:15 sum[1] 8.06147e-05
6 *11:15 *46:10 2.47015e-05
7 *26:11 sum[1] 8.97484e-05
8 *27:15 sum[1] 0
*RES
1 *667:X *46:10 49.8425 
2 *46:10 sum[1] 0.843733 
*END

*D_NET *47 0.000743618
*CONN
*P sum[2] O
*I *668:X O *D sky130_fd_sc_hd__buf_2
*CAP
1 sum[2] 0.000219327
2 *668:X 0.000219327
3 sum[0] sum[2] 8.73764e-05
4 sum[15] sum[2] 8.73764e-05
5 *45:8 sum[2] 0.000130212
*RES
1 *668:X sum[2] 48.5734 
*END

*D_NET *48 0.00191788
*CONN
*P sum[3] O
*I *669:X O *D sky130_fd_sc_hd__buf_2
*CAP
1 sum[3] 0.000196512
2 *669:X 0.000313784
3 *48:8 0.000510296
4 *48:8 *540:B2 3.70094e-05
5 *48:8 *613:A 0.0003405
6 *48:8 *219:38 0.000123433
7 sum[0] sum[3] 7.86455e-05
8 *625:A sum[3] 8.06147e-05
9 *11:15 *48:8 0.000137831
10 *19:13 sum[3] 0
11 *19:13 *48:8 9.92485e-05
*RES
1 *669:X *48:8 46.4204 
2 *48:8 sum[3] 8.9296 
*END

*D_NET *49 0.000985307
*CONN
*P sum[4] O
*I *670:X O *D sky130_fd_sc_hd__buf_2
*CAP
1 sum[4] 0.000443411
2 *670:X 0.000443411
3 sum[4] *173:10 9.84851e-05
4 *627:A sum[4] 0
5 *14:15 sum[4] 0
*RES
1 *670:X sum[4] 47.0936 
*END

*D_NET *50 0.00126987
*CONN
*P sum[5] O
*I *671:X O *D sky130_fd_sc_hd__buf_2
*CAP
1 sum[5] 0.000197122
2 *671:X 0.000178907
3 *50:8 0.000376028
4 *50:8 *618:A 0.000116128
5 *50:8 *670:A 0
6 *50:8 *671:A 0.000223153
7 *10:13 sum[5] 8.49003e-05
8 *10:13 *50:8 0
9 *26:11 sum[5] 9.36312e-05
*RES
1 *671:X *50:8 42.5468 
2 *50:8 sum[5] 8.9296 
*END

*D_NET *51 0.000955594
*CONN
*P sum[6] O
*I *672:X O *D sky130_fd_sc_hd__buf_2
*CAP
1 sum[6] 0.000477797
2 *672:X 0.000477797
3 sum[6] sum[8] 0
4 sum[6] *53:10 0
5 *645:A sum[6] 0
*RES
1 *672:X sum[6] 47.0936 
*END

*D_NET *52 0.00090929
*CONN
*P sum[7] O
*I *673:X O *D sky130_fd_sc_hd__buf_2
*CAP
1 sum[7] 0.000454645
2 *673:X 0.000454645
3 *646:A sum[7] 0
4 *32:11 sum[7] 0
*RES
1 *673:X sum[7] 49.4136 
*END

*D_NET *53 0.00169448
*CONN
*P sum[8] O
*I *674:X O *D sky130_fd_sc_hd__buf_2
*CAP
1 sum[8] 0.000418373
2 *674:X 0.00029598
3 *53:10 0.000714352
4 *53:10 *215:14 2.93845e-05
5 sum[6] sum[8] 0
6 sum[6] *53:10 0
7 *629:A sum[8] 0
8 *645:A *53:10 0.000236394
*RES
1 *674:X *53:10 44.8771 
2 *53:10 sum[8] 38.2236 
*END

*D_NET *54 0.000768058
*CONN
*P sum[9] O
*I *675:X O *D sky130_fd_sc_hd__buf_2
*CAP
1 sum[9] 7.67726e-05
2 *675:X 0.000260713
3 *54:14 0.000337486
4 sum[10] sum[9] 1.5289e-05
5 sum[10] *54:14 1.26232e-05
6 *650:A sum[9] 2.12457e-05
7 *650:A *54:14 0
8 *5:15 *54:14 4.39278e-05
*RES
1 *675:X *54:14 49.9 
2 *54:14 sum[9] 0.382667 
*END

*D_NET *55 0.00106956
*CONN
*I *584:D I *D sky130_fd_sc_hd__dfrtp_1
*I *537:Y O *D sky130_fd_sc_hd__a31oi_1
*CAP
1 *584:D 0.000128512
2 *537:Y 0.000221805
3 *55:10 0.000350317
4 *55:10 *473:B 8.48502e-06
5 *55:10 *537:B1 0.000184368
6 *55:10 *136:26 8.58486e-05
7 *55:10 *219:16 9.02213e-05
*RES
1 *537:Y *55:10 43.3443 
2 *55:10 *584:D 40.0507 
*END

*D_NET *56 0.00101242
*CONN
*I *585:D I *D sky130_fd_sc_hd__dfrtp_1
*I *539:X O *D sky130_fd_sc_hd__mux2_1
*CAP
1 *585:D 0
2 *539:X 0.000227478
3 *56:10 0.000227478
4 *56:10 *217:22 0.000141879
5 *56:10 *220:99 0.000415586
*RES
1 *539:X *56:10 42.9093 
2 *56:10 *585:D 38 
*END

*D_NET *57 0.000505098
*CONN
*I *586:D I *D sky130_fd_sc_hd__dfrtp_1
*I *542:X O *D sky130_fd_sc_hd__a21o_1
*CAP
1 *586:D 0
2 *542:X 0.000148179
3 *57:10 0.000148179
4 *57:10 *486:B 0.000140949
5 *57:10 *542:A1 2.54193e-05
6 *57:10 *217:36 4.23714e-05
*RES
1 *542:X *57:10 41.0036 
2 *57:10 *586:D 38 
*END

*D_NET *58 0.000690671
*CONN
*I *587:D I *D sky130_fd_sc_hd__dfrtp_1
*I *545:X O *D sky130_fd_sc_hd__a21o_1
*CAP
1 *587:D 0
2 *545:X 0.000195577
3 *58:10 0.000195577
4 *58:10 *545:A1 0.000185434
5 *58:10 *585:CLK 0
6 *58:10 *234:10 0.000114083
*RES
1 *545:X *58:10 41.6043 
2 *58:10 *587:D 38 
*END

*D_NET *59 0.000414975
*CONN
*I *588:D I *D sky130_fd_sc_hd__dfrtp_1
*I *548:X O *D sky130_fd_sc_hd__a2bb2o_1
*CAP
1 *588:D 0
2 *548:X 0.000178967
3 *59:10 0.000178967
4 *59:10 *135:43 5.70419e-05
5 *59:10 *135:60 0
*RES
1 *548:X *59:10 41.0036 
2 *59:10 *588:D 38 
*END

*D_NET *60 0.000797619
*CONN
*I *589:D I *D sky130_fd_sc_hd__dfrtp_1
*I *551:X O *D sky130_fd_sc_hd__a22o_1
*CAP
1 *589:D 0.000215141
2 *551:X 5.13921e-05
3 *60:8 0.000266533
4 *589:D *166:40 9.58714e-05
5 *60:8 *115:14 0.000114092
6 *60:8 *188:12 5.45887e-05
*RES
1 *551:X *60:8 39.5536 
2 *60:8 *589:D 41.6457 
*END

*D_NET *61 0.00085825
*CONN
*I *590:D I *D sky130_fd_sc_hd__dfrtp_1
*I *554:X O *D sky130_fd_sc_hd__mux2_1
*CAP
1 *590:D 0
2 *554:X 0.000303735
3 *61:10 0.000303735
4 *61:10 *554:A1 0.000140259
5 *61:10 *590:CLK 0
6 *61:10 *168:77 0
7 *61:10 *241:8 0.000110521
*RES
1 *554:X *61:10 43.945 
2 *61:10 *590:D 38 
*END

*D_NET *62 0.00128867
*CONN
*I *591:D I *D sky130_fd_sc_hd__dfrtp_1
*I *557:X O *D sky130_fd_sc_hd__mux2_1
*CAP
1 *591:D 0
2 *557:X 0.000446984
3 *62:8 0.000446984
4 *62:8 *615:A 2.64616e-05
5 *62:8 *116:21 0.00034178
6 *62:8 *160:14 2.64616e-05
*RES
1 *557:X *62:8 31.7414 
2 *62:8 *591:D 23 
*END

*D_NET *63 0.00287306
*CONN
*I *592:D I *D sky130_fd_sc_hd__dfrtp_1
*I *560:X O *D sky130_fd_sc_hd__mux2_1
*CAP
1 *592:D 0
2 *560:X 6.00464e-05
3 *63:14 0.000941249
4 *63:8 0.0010013
5 *63:8 *158:16 8.62783e-05
6 *63:14 *558:B1 0.000359317
7 *63:14 *592:CLK 0.000298429
8 *63:14 *160:14 0.000126446
*RES
1 *560:X *63:8 39.2014 
2 *63:8 *63:14 29.4586 
3 *63:14 *592:D 23 
*END

*D_NET *64 0.000720151
*CONN
*I *593:D I *D sky130_fd_sc_hd__dfrtp_1
*I *562:X O *D sky130_fd_sc_hd__mux2_1
*CAP
1 *593:D 0
2 *562:X 0.00021108
3 *64:10 0.00021108
4 *64:10 *77:12 0.000110922
5 *64:10 *168:12 0.000187069
*RES
1 *562:X *64:10 41.6043 
2 *64:10 *593:D 38 
*END

*D_NET *65 0.000616003
*CONN
*I *594:D I *D sky130_fd_sc_hd__dfrtp_1
*I *565:X O *D sky130_fd_sc_hd__mux2_1
*CAP
1 *594:D 0
2 *565:X 0.000169445
3 *65:10 0.000169445
4 *65:10 *566:A1 9.168e-05
5 *65:10 *594:CLK 0
6 *65:10 *594:RESET_B 0.000185434
7 *65:10 *122:10 0
8 *65:10 *219:69 0