*SPEF "ieee 1481-1999"
*DESIGN "adder16"
*DATE "21:04:45 Friday November 28, 2025"
*VENDOR "The OpenROAD Project"
*PROGRAM "OpenROAD"
*VERSION "edf00dff99f6c40d67a30c0e22a8191c5d2ed9d6"
*DESIGN_FLOW "NAME_SCOPE LOCAL" "PIN_CAP NONE"
*DIVIDER /
*DELIMITER :
*BUS_DELIMITER []
*T_UNIT 1 NS
*C_UNIT 1 PF
*R_UNIT 1 OHM
*L_UNIT 1 HENRY

*NAME_MAP
*3 a[0]
*4 a[10]
*5 a[11]
*6 a[12]
*7 a[13]
*8 a[14]
*9 a[15]
*10 a[1]
*11 a[2]
*12 a[3]
*13 a[4]
*14 a[5]
*15 a[6]
*16 a[7]
*17 a[8]
*18 a[9]
*19 b[0]
*20 b[10]
*21 b[11]
*22 b[12]
*23 b[13]
*24 b[14]
*25 b[15]
*26 b[1]
*27 b[2]
*28 b[3]
*29 b[4]
*30 b[5]
*31 b[6]
*32 b[7]
*33 b[8]
*34 b[9]
*35 carry
*36 clk
*37 en
*38 rst_n
*39 sum[0]
*40 sum[10]
*41 sum[11]
*42 sum[12]
*43 sum[13]
*44 sum[14]
*45 sum[15]
*46 sum[1]
*47 sum[2]
*48 sum[3]
*49 sum[4]
*50 sum[5]
*51 sum[6]
*52 sum[7]
*53 sum[8]
*54 sum[9]
*55 _000_
*56 _001_
*57 _002_
*58 _003_
*59 _004_
*60 _005_
*61 _006_
*62 _007_
*63 _008_
*64 _009_
*65 _010_
*66 _011_
*67 _012_
*68 _013_
*69 _014_
*70 _015_
*71 _016_
*72 _017_
*73 _018_
*74 _019_
*75 _020_
*76 _021_
*77 _022_
*78 _023_
*79 _024_
*80 _025_
*81 _026_
*82 _027_
*83 _028_
*84 _029_
*85 _030_
*86 _031_
*87 _032_
*88 _033_
*89 _034_
*90 _035_
*91 _036_
*92 _037_
*93 _038_
*94 _039_
*95 _040_
*96 _041_
*97 _042_
*98 _043_
*99 _044_
*100 _045_
*101 _046_
*102 _047_
*103 _048_
*104 _049_
*105 _050_
*106 _051_
*107 _052_
*108 _053_
*109 _054_
*110 _055_
*111 _056_
*112 _057_
*113 _058_
*114 _059_
*115 _060_
*116 _061_
*117 _062_
*118 _063_
*119 _064_
*120 _065_
*121 _066_
*122 _067_
*123 _068_
*124 _069_
*125 _070_
*126 _071_
*127 _072_
*128 _073_
*129 _074_
*130 _075_
*131 _076_
*132 _077_
*133 _078_
*134 _079_
*135 _080_
*136 _081_
*137 _082_
*138 _083_
*139 _084_
*140 _085_
*141 _086_
*142 _087_
*143 _088_
*144 _089_
*145 _090_
*146 _091_
*147 _092_
*148 _093_
*149 _094_
*150 _095_
*151 _096_
*152 _097_
*153 _098_
*154 _099_
*155 _100_
*156 _101_
*157 _102_
*158 _103_
*159 _104_
*160 _105_
*161 _106_
*162 _107_
*163 _108_
*164 _109_
*165 _110_
*166 _111_
*167 _112_
*168 _113_
*169 _114_
*170 _115_
*171 _116_
*172 _117_
*173 _118_
*174 _119_
*175 _120_
*176 _121_
*177 _122_
*178 _123_
*179 _124_
*180 _125_
*181 _126_
*182 _127_
*183 _128_
*184 _129_
*185 _130_
*186 _131_
*187 _132_
*188 clknet_0_clk
*189 clknet_1_0__leaf_clk
*190 clknet_1_1__leaf_clk
*191 net1
*192 net10
*193 net11
*194 net12
*195 net13
*196 net14
*197 net15
*198 net16
*199 net17
*200 net18
*201 net19
*202 net2
*203 net20
*204 net21
*205 net22
*206 net23
*207 net24
*208 net25
*209 net26
*210 net27
*211 net28
*212 net29
*213 net3
*214 net30
*215 net31
*216 net32
*217 net33
*218 net34
*219 net35
*220 net36
*221 net37
*222 net38
*223 net39
*224 net4
*225 net40
*226 net41
*227 net42
*228 net43
*229 net44
*230 net45
*231 net46
*232 net47
*233 net48
*234 net49
*235 net5
*236 net50
*237 net51
*238 net6
*239 net7
*240 net8
*241 net9
*242 FILLER_0_104
*243 FILLER_0_11
*244 FILLER_0_113
*245 FILLER_0_125
*246 FILLER_0_133
*247 FILLER_0_22
*248 FILLER_0_29
*249 FILLER_0_3
*250 FILLER_0_41
*251 FILLER_0_48
*252 FILLER_0_55
*253 FILLER_0_57
*254 FILLER_0_62
*255 FILLER_0_69
*256 FILLER_0_76
*257 FILLER_0_83
*258 FILLER_0_85
*259 FILLER_0_90
*260 FILLER_0_97
*261 FILLER_10_102
*262 FILLER_10_114
*263 FILLER_10_18
*264 FILLER_10_26
*265 FILLER_10_36
*266 FILLER_10_48
*267 FILLER_10_6
*268 FILLER_10_60
*269 FILLER_10_72
*270 FILLER_10_85
*271 FILLER_10_92
*272 FILLER_11_10
*273 FILLER_11_108
*274 FILLER_11_113
*275 FILLER_11_120
*276 FILLER_11_127
*277 FILLER_11_16
*278 FILLER_11_22
*279 FILLER_11_34
*280 FILLER_11_46
*281 FILLER_11_54
*282 FILLER_11_57
*283 FILLER_11_6
*284 FILLER_11_69
*285 FILLER_11_75
*286 FILLER_11_96
*287 FILLER_12_109
*288 FILLER_12_121
*289 FILLER_12_22
*290 FILLER_12_51
*291 FILLER_12_63
*292 FILLER_12_75
*293 FILLER_12_83
*294 FILLER_12_85
*295 FILLER_12_97
*296 FILLER_13_101
*297 FILLER_13_109
*298 FILLER_13_116
*299 FILLER_13_125
*300 FILLER_13_3
*301 FILLER_13_31
*302 FILLER_13_54
*303 FILLER_13_57
*304 FILLER_13_73
*305 FILLER_13_9
*306 FILLER_14_12
*307 FILLER_14_131
*308 FILLER_14_27
*309 FILLER_14_29
*310 FILLER_14_41
*311 FILLER_14_53
*312 FILLER_14_59
*313 FILLER_14_6
*314 FILLER_14_83
*315 FILLER_14_85
*316 FILLER_14_95
*317 FILLER_15_103
*318 FILLER_15_135
*319 FILLER_15_23
*320 FILLER_15_35
*321 FILLER_15_47
*322 FILLER_15_55
*323 FILLER_15_57
*324 FILLER_15_6
*325 FILLER_15_65
*326 FILLER_15_90
*327 FILLER_16_109
*328 FILLER_16_121
*329 FILLER_16_14
*330 FILLER_16_19
*331 FILLER_16_27
*332 FILLER_16_29
*333 FILLER_16_41
*334 FILLER_16_53
*335 FILLER_16_6
*336 FILLER_16_65
*337 FILLER_16_77
*338 FILLER_16_85
*339 FILLER_16_97
*340 FILLER_17_100
*341 FILLER_17_113
*342 FILLER_17_121
*343 FILLER_17_129
*344 FILLER_17_17
*345 FILLER_17_29
*346 FILLER_17_41
*347 FILLER_17_53
*348 FILLER_17_64
*349 FILLER_17_76
*350 FILLER_17_88
*351 FILLER_17_9
*352 FILLER_18_102
*353 FILLER_18_114
*354 FILLER_18_23
*355 FILLER_18_3
*356 FILLER_18_37
*357 FILLER_18_50
*358 FILLER_18_62
*359 FILLER_18_74
*360 FILLER_18_82
*361 FILLER_18_96
*362 FILLER_19_110
*363 FILLER_19_113
*364 FILLER_19_28
*365 FILLER_19_55
*366 FILLER_19_57
*367 FILLER_19_61
*368 FILLER_1_109
*369 FILLER_1_113
*370 FILLER_1_125
*371 FILLER_1_133
*372 FILLER_1_17
*373 FILLER_1_27
*374 FILLER_1_57
*375 FILLER_1_69
*376 FILLER_1_9
*377 FILLER_1_97
*378 FILLER_20_118
*379 FILLER_20_12
*380 FILLER_20_22
*381 FILLER_20_29
*382 FILLER_20_40
*383 FILLER_20_63
*384 FILLER_20_75
*385 FILLER_20_83
*386 FILLER_21_101
*387 FILLER_21_108
*388 FILLER_21_113
*389 FILLER_21_125
*390 FILLER_21_133
*391 FILLER_21_18
*392 FILLER_21_30
*393 FILLER_21_42
*394 FILLER_21_52
*395 FILLER_21_57
*396 FILLER_21_6
*397 FILLER_21_69
*398 FILLER_21_81
*399 FILLER_21_85
*400 FILLER_21_94
*401 FILLER_22_104
*402 FILLER_22_111
*403 FILLER_22_113
*404 FILLER_22_125
*405 FILLER_22_133
*406 FILLER_22_15
*407 FILLER_22_27
*408 FILLER_22_29
*409 FILLER_22_3
*410 FILLER_22_41
*411 FILLER_22_53
*412 FILLER_22_57
*413 FILLER_22_62
*414 FILLER_22_69
*415 FILLER_22_76
*416 FILLER_22_83
*417 FILLER_22_85
*418 FILLER_22_90
*419 FILLER_22_97
*420 FILLER_2_105
*421 FILLER_2_123
*422 FILLER_2_29
*423 FILLER_2_3
*424 FILLER_2_41
*425 FILLER_2_67
*426 FILLER_2_75
*427 FILLER_3_100
*428 FILLER_3_108
*429 FILLER_3_11
*430 FILLER_3_131
*431 FILLER_3_135
*432 FILLER_3_3
*433 FILLER_3_30
*434 FILLER_3_38
*435 FILLER_3_49
*436 FILLER_3_77
*437 FILLER_3_81
*438 FILLER_3_86
*439 FILLER_4_105
*440 FILLER_4_129
*441 FILLER_4_20
*442 FILLER_4_29
*443 FILLER_4_37
*444 FILLER_4_49
*445 FILLER_4_61
*446 FILLER_4_73
*447 FILLER_4_81
*448 FILLER_4_85
*449 FILLER_4_9
*450 FILLER_4_97
*451 FILLER_5_121
*452 FILLER_5_20
*453 FILLER_5_26
*454 FILLER_5_34
*455 FILLER_5_46
*456 FILLER_5_54
*457 FILLER_5_57
*458 FILLER_5_6
*459 FILLER_5_69
*460 FILLER_5_81
*461 FILLER_5_93
*462 FILLER_6_29
*463 FILLER_6_40
*464 FILLER_6_52
*465 FILLER_6_6
*466 FILLER_6_85
*467 FILLER_6_97
*468 FILLER_7_106
*469 FILLER_7_113
*470 FILLER_7_121
*471 FILLER_7_13
*472 FILLER_7_131
*473 FILLER_7_24
*474 FILLER_7_29
*475 FILLER_7_33
*476 FILLER_7_54
*477 FILLER_7_57
*478 FILLER_7_6
*479 FILLER_7_69
*480 FILLER_7_94
*481 FILLER_8_105
*482 FILLER_8_117
*483 FILLER_8_131
*484 FILLER_8_135
*485 FILLER_8_15
*486 FILLER_8_27
*487 FILLER_8_29
*488 FILLER_8_3
*489 FILLER_8_41
*490 FILLER_8_53
*491 FILLER_8_65
*492 FILLER_8_85
*493 FILLER_8_9
*494 FILLER_8_94
*495 FILLER_9_113
*496 FILLER_9_125
*497 FILLER_9_129
*498 FILLER_9_18
*499 FILLER_9_50
*500 FILLER_9_57
*501 FILLER_9_6
*502 FILLER_9_69
*503 FILLER_9_81
*504 FILLER_9_85
*505 PHY_EDGE_ROW_0_Left_23
*506 PHY_EDGE_ROW_0_Right_0
*507 PHY_EDGE_ROW_10_Left_33
*508 PHY_EDGE_ROW_10_Right_10
*509 PHY_EDGE_ROW_11_Left_34
*510 PHY_EDGE_ROW_11_Right_11
*511 PHY_EDGE_ROW_12_Left_35
*512 PHY_EDGE_ROW_12_Right_12
*513 PHY_EDGE_ROW_13_Left_36
*514 PHY_EDGE_ROW_13_Right_13
*515 PHY_EDGE_ROW_14_Left_37
*516 PHY_EDGE_ROW_14_Right_14
*517 PHY_EDGE_ROW_15_Left_38
*518 PHY_EDGE_ROW_15_Right_15
*519 PHY_EDGE_ROW_16_Left_39
*520 PHY_EDGE_ROW_16_Right_16
*521 PHY_EDGE_ROW_17_Left_40
*522 PHY_EDGE_ROW_17_Right_17
*523 PHY_EDGE_ROW_18_Left_41
*524 PHY_EDGE_ROW_18_Right_18
*525 PHY_EDGE_ROW_19_Left_42
*526 PHY_EDGE_ROW_19_Right_19
*527 PHY_EDGE_ROW_1_Left_24
*528 PHY_EDGE_ROW_1_Right_1
*529 PHY_EDGE_ROW_20_Left_43
*530 PHY_EDGE_ROW_20_Right_20
*531 PHY_EDGE_ROW_21_Left_44
*532 PHY_EDGE_ROW_21_Right_21
*533 PHY_EDGE_ROW_22_Left_45
*534 PHY_EDGE_ROW_22_Right_22
*535 PHY_EDGE_ROW_2_Left_25
*536 PHY_EDGE_ROW_2_Right_2
*537 PHY_EDGE_ROW_3_Left_26
*538 PHY_EDGE_ROW_3_Right_3
*539 PHY_EDGE_ROW_4_Left_27
*540 PHY_EDGE_ROW_4_Right_4
*541 PHY_EDGE_ROW_5_Left_28
*542 PHY_EDGE_ROW_5_Right_5
*543 PHY_EDGE_ROW_6_Left_29
*544 PHY_EDGE_ROW_6_Right_6
*545 PHY_EDGE_ROW_7_Left_30
*546 PHY_EDGE_ROW_7_Right_7
*547 PHY_EDGE_ROW_8_Left_31
*548 PHY_EDGE_ROW_8_Right_8
*549 PHY_EDGE_ROW_9_Left_32
*550 PHY_EDGE_ROW_9_Right_9
*551 TAP_TAPCELL_ROW_0_46
*552 TAP_TAPCELL_ROW_0_47
*553 TAP_TAPCELL_ROW_0_48
*554 TAP_TAPCELL_ROW_0_49
*555 TAP_TAPCELL_ROW_10_68
*556 TAP_TAPCELL_ROW_10_69
*557 TAP_TAPCELL_ROW_11_70
*558 TAP_TAPCELL_ROW_11_71
*559 TAP_TAPCELL_ROW_12_72
*560 TAP_TAPCELL_ROW_12_73
*561 TAP_TAPCELL_ROW_13_74
*562 TAP_TAPCELL_ROW_13_75
*563 TAP_TAPCELL_ROW_14_76
*564 TAP_TAPCELL_ROW_14_77
*565 TAP_TAPCELL_ROW_15_78
*566 TAP_TAPCELL_ROW_15_79
*567 TAP_TAPCELL_ROW_16_80
*568 TAP_TAPCELL_ROW_16_81
*569 TAP_TAPCELL_ROW_17_82
*570 TAP_TAPCELL_ROW_17_83
*571 TAP_TAPCELL_ROW_18_84
*572 TAP_TAPCELL_ROW_18_85
*573 TAP_TAPCELL_ROW_19_86
*574 TAP_TAPCELL_ROW_19_87
*575 TAP_TAPCELL_ROW_1_50
*576 TAP_TAPCELL_ROW_1_51
*577 TAP_TAPCELL_ROW_20_88
*578 TAP_TAPCELL_ROW_20_89
*579 TAP_TAPCELL_ROW_21_90
*580 TAP_TAPCELL_ROW_21_91
*581 TAP_TAPCELL_ROW_22_92
*582 TAP_TAPCELL_ROW_22_93
*583 TAP_TAPCELL_ROW_22_94
*584 TAP_TAPCELL_ROW_22_95
*585 TAP_TAPCELL_ROW_2_52
*586 TAP_TAPCELL_ROW_2_53
*587 TAP_TAPCELL_ROW_3_54
*588 TAP_TAPCELL_ROW_3_55
*589 TAP_TAPCELL_ROW_4_56
*590 TAP_TAPCELL_ROW_4_57
*591 TAP_TAPCELL_ROW_5_58
*592 TAP_TAPCELL_ROW_5_59
*593 TAP_TAPCELL_ROW_6_60
*594 TAP_TAPCELL_ROW_6_61
*595 TAP_TAPCELL_ROW_7_62
*596 TAP_TAPCELL_ROW_7_63
*597 TAP_TAPCELL_ROW_8_64
*598 TAP_TAPCELL_ROW_8_65
*599 TAP_TAPCELL_ROW_9_66
*600 TAP_TAPCELL_ROW_9_67
*601 _133_
*602 _134_
*603 _135_
*604 _136_
*605 _137_
*606 _138_
*607 _139_
*608 _140_
*609 _141_
*610 _142_
*611 _143_
*612 _144_
*613 _145_
*614 _146_
*615 _147_
*616 _148_
*617 _149_
*618 _150_
*619 _151_
*620 _152_
*621 _153_
*622 _154_
*623 _155_
*624 _156_
*625 _157_
*626 _158_
*627 _159_
*628 _160_
*629 _161_
*630 _162_
*631 _163_
*632 _164_
*633 _165_
*634 _166_
*635 _167_
*636 _168_
*637 _169_
*638 _170_
*639 _171_
*640 _172_
*641 _173_
*642 _174_
*643 _175_
*644 _176_
*645 _177_
*646 _178_
*647 _179_
*648 _180_
*649 _181_
*650 _182_
*651 _183_
*652 _184_
*653 _185_
*654 _186_
*655 _187_
*656 _188_
*657 _189_
*658 _190_
*659 _191_
*660 _192_
*661 _193_
*662 _194_
*663 _195_
*664 _196_
*665 _197_
*666 _198_
*667 _199_
*668 _200_
*669 _201_
*670 _202_
*671 _203_
*672 _204_
*673 _205_
*674 _206_
*675 _207_
*676 _208_
*677 _209_
*678 _210_
*679 _211_
*680 _212_
*681 _213_
*682 _214_
*683 _215_
*684 _216_
*685 _217_
*686 _218_
*687 _219_
*688 _220_
*689 _221_
*690 _222_
*691 _223_
*692 _224_
*693 _225_
*694 _226_
*695 _227_
*696 _228_
*697 _229_
*698 _230_
*699 _231_
*700 _232_
*701 _233_
*702 _234_
*703 _235_
*704 _236_
*705 _237_
*706 _238_
*707 _239_
*708 _240_
*709 _241_
*710 _242_
*711 _243_
*712 _244_
*713 _245_
*714 _246_
*715 _247_
*716 _248_
*717 _249_
*718 _250_
*719 _251_
*720 _252_
*721 _253_
*722 _254_
*723 _255_
*724 _256_
*725 _257_
*726 _258_
*727 _259_
*728 _260_
*729 _261_
*730 _262_
*731 _263_
*732 _264_
*733 _265_
*734 _266_
*735 _267_
*736 _268_
*737 _269_
*738 _270_
*739 _271_
*740 _272_
*741 _273_
*742 _274_
*743 _275_
*744 _276_
*745 _277_
*746 _278_
*747 _279_
*748 _280_
*749 _281_
*750 _282_
*751 clkbuf_0_clk
*752 clkbuf_1_0__f_clk
*753 clkbuf_1_1__f_clk
*754 clkload0
*755 input1
*756 input10
*757 input11
*758 input12
*759 input13
*760 input14
*761 input15
*762 input16
*763 input17
*764 input18
*765 input19
*766 input2
*767 input20
*768 input21
*769 input22
*770 input23
*771 input24
*772 input25
*773 input26
*774 input27
*775 input28
*776 input29
*777 input3
*778 input30
*779 input31
*780 input32
*781 input33
*782 input34
*783 input4
*784 input5
*785 input6
*786 input7
*787 input8
*788 input9
*789 output35
*790 output36
*791 output37
*792 output38
*793 output39
*794 output40
*795 output41
*796 output42
*797 output43
*798 output44
*799 output45
*800 output46
*801 output47
*802 output48
*803 output49
*804 output50
*805 output51

*PORTS
a[0] I
a[10] I
a[11] I
a[12] I
a[13] I
a[14] I
a[15] I
a[1] I
a[2] I
a[3] I
a[4] I
a[5] I
a[6] I
a[7] I
a[8] I
a[9] I
b[0] I
b[10] I
b[11] I
b[12] I
b[13] I
b[14] I
b[15] I
b[1] I
b[2] I
b[3] I
b[4] I
b[5] I
b[6] I
b[7] I
b[8] I
b[9] I
carry O
clk I
en I
rst_n I
sum[0] O
sum[10] O
sum[11] O
sum[12] O
sum[13] O
sum[14] O
sum[15] O
sum[1] O
sum[2] O
sum[3] O
sum[4] O
sum[5] O
sum[6] O
sum[7] O
sum[8] O
sum[9] O

*D_NET *3 0.000959268
*CONN
*P a[0] I
*I *755:A I *D sky130_fd_sc_hd__buf_2
*CAP
1 a[0] 0.000462397
2 *755:A 0.000462397
3 *755:A *616:B 1.14452e-05
4 *755:A *763:A 0
5 *755:A *171:10 2.30292e-05
*RES
1 a[0] *755:A 47.7979 
*END

*D_NET *4 0.0005267
*CONN
*P a[10] I
*I *766:A I *D sky130_fd_sc_hd__buf_1
*CAP
1 a[10] 0.000175973
2 *766:A 0.000175973
3 *766:A *764:A 8.73764e-05
4 *766:A *765:A 8.73764e-05
*RES
1 a[10] *766:A 47.1648 
*END

*D_NET *5 0.000583471
*CONN
*P a[11] I
*I *777:A I *D sky130_fd_sc_hd__buf_1
*CAP
1 a[11] 0.000201121
2 *777:A 0.000201121
3 *777:A sum[11] 8.11094e-05
4 *777:A *765:A 8.73764e-05
5 *777:A *213:8 1.27424e-05
6 *777:A *217:27 0
*RES
1 a[11] *777:A 47.8691 
*END

*D_NET *6 0.000949446
*CONN
*P a[12] I
*I *783:A I *D sky130_fd_sc_hd__buf_1
*CAP
1 a[12] 0.000384052
2 *783:A 0.000384052
3 *783:A sum[14] 8.73764e-05
4 *783:A *767:A 9.39643e-05
5 *783:A *218:22 0
*RES
1 a[12] *783:A 49.8874 
*END

*D_NET *7 0.000479844
*CONN
*P a[13] I
*I *784:A I *D sky130_fd_sc_hd__dlymetal6s2s_1
*CAP
1 a[13] 0.000195048
2 *784:A 0.000195048
3 *784:A *785:A 8.97484e-05
4 *784:A *238:18 0
*RES
1 a[13] *784:A 47.1648 
*END

*D_NET *8 0.000736438
*CONN
*P a[14] I
*I *785:A I *D sky130_fd_sc_hd__buf_1
*CAP
1 a[14] 0.000249032
2 *785:A 0.000249032
3 *785:A *769:A 8.73764e-05
4 *785:A *235:8 6.12504e-05
5 *784:A *785:A 8.97484e-05
*RES
1 a[14] *785:A 49.2777 
*END

*D_NET *9 0.000914002
*CONN
*P a[15] I
*I *786:A I *D sky130_fd_sc_hd__buf_1
*CAP
1 a[15] 0.000451929
2 *786:A 0.000451929
3 *786:A carry 0
4 *786:A sum[13] 0
5 *786:A *225:16 1.01436e-05
*RES
1 a[15] *786:A 47.3214 
*END

*D_NET *10 0.000741693
*CONN
*P a[1] I
*I *787:A I *D sky130_fd_sc_hd__buf_4
*CAP
1 a[1] 0.000345779
2 *787:A 0
3 *10:17 0.000345779
4 *10:17 *11:17 2.88889e-05
5 *10:17 *26:17 2.12457e-05
6 *10:17 *240:8 0
*RES
1 a[1] *10:17 28.2148 
2 *10:17 *787:A 23 
*END

*D_NET *11 0.00071699
*CONN
*P a[2] I
*I *788:A I *D sky130_fd_sc_hd__buf_1
*CAP
1 a[2] 0.000330094
2 *788:A 0
3 *11:17 0.000330094
4 *11:17 *772:A 2.79122e-05
5 *10:17 *11:17 2.88889e-05
*RES
1 a[2] *11:17 27.8627 
2 *11:17 *788:A 23 
*END

*D_NET *12 0.000757436
*CONN
*P a[3] I
*I *756:A I *D sky130_fd_sc_hd__clkbuf_1
*CAP
1 a[3] 0.000323307
2 *756:A 0.000323307
3 *756:A sum[4] 2.12457e-05
4 *756:A *757:A 0
5 *756:A *772:A 0
6 *756:A *773:A 2.79122e-05
7 *756:A *192:8 6.16635e-05
*RES
1 a[3] *756:A 49.5439 
*END

*D_NET *13 0.000578669
*CONN
*P a[4] I
*I *757:A I *D sky130_fd_sc_hd__buf_1
*CAP
1 a[4] 0.000264755
2 *757:A 0.000264755
3 *757:A sum[4] 2.79122e-05
4 *757:A sum[5] 0
5 *757:A *29:17 2.12457e-05
6 *757:A *210:34 0
7 *756:A *757:A 0
*RES
1 a[4] *757:A 48.1354 
*END

*D_NET *14 0.000548736
*CONN
*P a[5] I
*I *758:A I *D sky130_fd_sc_hd__buf_1
*CAP
1 a[5] 0.000248122
2 *758:A 0.000248122
3 *758:A sum[5] 0
4 *758:A *760:A 2.12457e-05
5 *758:A *30:17 3.12475e-05
6 *758:A *32:11 0
*RES
1 a[5] *758:A 47.7832 
*END

*D_NET *15 0.000561597
*CONN
*P a[6] I
*I *759:A I *D sky130_fd_sc_hd__buf_1
*CAP
1 a[6] 0.000258758
2 *759:A 0.000258758
3 *759:A *31:15 4.40799e-05
4 *759:A *32:11 0
*RES
1 a[6] *759:A 48.1354 
*END

*D_NET *16 0.000618748
*CONN
*P a[7] I
*I *760:A I *D sky130_fd_sc_hd__buf_1
*CAP
1 a[7] 0.000284795
2 *760:A 0.000284795
3 *760:A *32:11 2.79122e-05
4 *758:A *760:A 2.12457e-05
*RES
1 a[7] *760:A 49.8062 
*END

*D_NET *17 0.00107712
*CONN
*P a[8] I
*I *761:A I *D sky130_fd_sc_hd__buf_1
*CAP
1 a[8] 0.000538562
2 *761:A 0.000538562
3 *761:A sum[8] 0
4 *761:A sum[9] 0
5 *761:A *805:A 0
*RES
1 a[8] *761:A 49.7864 
*END

*D_NET *18 0.00104211
*CONN
*P a[9] I
*I *762:A I *D sky130_fd_sc_hd__dlymetal6s2s_1
*CAP
1 a[9] 0.000521056
2 *762:A 0.000521056
3 *762:A *33:11 0
*RES
1 a[9] *762:A 49.4343 
*END

*D_NET *19 0.000901682
*CONN
*P b[0] I
*I *763:A I *D sky130_fd_sc_hd__buf_2
*CAP
1 b[0] 0.000450841
2 *763:A 0.000450841
3 *755:A *763:A 0
*RES
1 b[0] *763:A 47.3214 
*END

*D_NET *20 0.000512188
*CONN
*P b[10] I
*I *764:A I *D sky130_fd_sc_hd__buf_1
*CAP
1 b[10] 0.000171851
2 *764:A 0.000171851
3 *764:A sum[10] 8.11094e-05
4 *764:A *217:27 0
5 *766:A *764:A 8.73764e-05
*RES
1 b[10] *764:A 47.1648 
*END

*D_NET *21 0.000622136
*CONN
*P b[11] I
*I *765:A I *D sky130_fd_sc_hd__buf_1
*CAP
1 b[11] 0.000220629
2 *765:A 0.000220629
3 *765:A *661:C1 0
4 *765:A *201:23 6.12496e-06
5 *765:A *217:27 0
6 *766:A *765:A 8.73764e-05
7 *777:A *765:A 8.73764e-05
*RES
1 b[11] *765:A 48.2212 
*END

*D_NET *22 0.000562214
*CONN
*P b[12] I
*I *767:A I *D sky130_fd_sc_hd__buf_1
*CAP
1 b[12] 0.000190437
2 *767:A 0.000190437
3 *767:A sum[10] 8.73764e-05
4 *767:A *218:22 0
5 *783:A *767:A 9.39643e-05
*RES
1 b[12] *767:A 47.8691 
*END

*D_NET *23 0.000603694
*CONN
*P b[13] I
*I *768:A I *D sky130_fd_sc_hd__buf_1
*CAP
1 b[13] 0.000203433
2 *768:A 0.000203433
3 *768:A sum[14] 8.11094e-05
4 *768:A *769:A 8.73764e-05
5 *768:A *235:8 6.12496e-06
6 *768:A *235:19 2.22183e-05
*RES
1 b[13] *768:A 47.8691 
*END

*D_NET *24 0.00071809
*CONN
*P b[14] I
*I *769:A I *D sky130_fd_sc_hd__buf_1
*CAP
1 b[14] 0.00024668
2 *769:A 0.00024668
3 *769:A *235:8 4.99761e-05
4 *768:A *769:A 8.73764e-05
5 *785:A *769:A 8.73764e-05
*RES
1 b[14] *769:A 48.9255 
*END

*D_NET *25 0.00100727
*CONN
*P b[15] I
*I *770:A I *D sky130_fd_sc_hd__buf_1
*CAP
1 b[15] 0.000503636
2 *770:A 0.000503636
3 *770:A carry 0
4 *770:A sum[15] 0
5 *770:A *789:A 0
*RES
1 b[15] *770:A 48.2743 
*END

*D_NET *26 0.000755011
*CONN
*P b[1] I
*I *771:A I *D sky130_fd_sc_hd__buf_4
*CAP
1 b[1] 0.000366883
2 *771:A 0
3 *26:17 0.000366883
4 *10:17 *26:17 2.12457e-05
*RES
1 b[1] *26:17 28.2148 
2 *26:17 *771:A 23 
*END

*D_NET *27 0.000565793
*CONN
*P b[2] I
*I *772:A I *D sky130_fd_sc_hd__buf_1
*CAP
1 b[2] 0.000258318
2 *772:A 0.000258318
3 *772:A *773:A 2.12457e-05
4 *772:A *168:8 0
5 *756:A *772:A 0
6 *11:17 *772:A 2.79122e-05
*RES
1 b[2] *772:A 47.7832 
*END

*D_NET *28 0.000618748
*CONN
*P b[3] I
*I *773:A I *D sky130_fd_sc_hd__clkbuf_1
*CAP
1 b[3] 0.000284795
2 *773:A 0.000284795
3 *756:A *773:A 2.79122e-05
4 *772:A *773:A 2.12457e-05
*RES
1 b[3] *773:A 49.8062 
*END

*D_NET *29 0.000660958
*CONN
*P b[4] I
*I *774:A I *D sky130_fd_sc_hd__buf_1
*CAP
1 b[4] 0.0003059
2 *774:A 0
3 *29:17 0.0003059
4 *29:17 sum[5] 2.79122e-05
5 *757:A *29:17 2.12457e-05
*RES
1 b[4] *29:17 27.1584 
2 *29:17 *774:A 23 
*END

*D_NET *30 0.00070451
*CONN
*P b[5] I
*I *775:A I *D sky130_fd_sc_hd__buf_1
*CAP
1 b[5] 0.000326008
2 *775:A 0
3 *30:17 0.000326008
4 *30:17 sum[5] 2.12457e-05
5 *758:A *30:17 3.12475e-05
*RES
1 b[5] *30:17 27.8627 
2 *30:17 *775:A 23 
*END

*D_NET *31 0.0011265
*CONN
*P b[6] I
*I *776:A I *D sky130_fd_sc_hd__buf_1
*CAP
1 b[6] 0.000461023
2 *776:A 0
3 *31:15 0.000461023
4 *31:15 *627:A 5.67058e-05
5 *31:15 *627:B 5.95921e-05
6 *31:15 *32:11 4.40799e-05
7 *759:A *31:15 4.40799e-05
*RES
1 b[6] *31:15 30.1983 
2 *31:15 *776:A 23 
*END

*D_NET *32 0.00106747
*CONN
*P b[7] I
*I *778:A I *D sky130_fd_sc_hd__buf_1
*CAP
1 b[7] 0.000410251
2 *778:A 0
3 *32:11 0.000410251
4 *32:11 *195:10 0
5 *32:11 *195:25 0
6 *32:11 *214:8 5.20202e-05
7 *32:11 *214:14 0.000122953
8 *758:A *32:11 0
9 *759:A *32:11 0
10 *760:A *32:11 2.79122e-05
11 *31:15 *32:11 4.40799e-05
*RES
1 b[7] *32:11 29.0089 
2 *32:11 *778:A 23 
*END

*D_NET *33 0.00121758
*CONN
*P b[8] I
*I *779:A I *D sky130_fd_sc_hd__buf_1
*CAP
1 b[8] 0.000605701
2 *779:A 0
3 *33:11 0.000605701
4 *33:11 *780:A 0
5 *33:11 *216:10 6.17437e-06
6 *762:A *33:11 0
*RES
1 b[8] *33:11 27.8843 
2 *33:11 *779:A 23 
*END

*D_NET *34 0.00107712
*CONN
*P b[9] I
*I *780:A I *D sky130_fd_sc_hd__buf_1
*CAP
1 b[9] 0.000538562
2 *780:A 0.000538562
3 *780:A sum[9] 0
4 *33:11 *780:A 0
*RES
1 b[9] *780:A 49.7864 
*END

*D_NET *35 0.000857117
*CONN
*P carry O
*I *789:X O *D sky130_fd_sc_hd__buf_1
*CAP
1 carry 0.000428559
2 *789:X 0.000428559
3 *770:A carry 0
4 *786:A carry 0
*RES
1 *789:X carry 46.6171 
*END

*D_NET *36 0.00669091
*CONN
*P clk I
*I *751:A I *D sky130_fd_sc_hd__clkbuf_16
*CAP
1 clk 0.00191317
2 *751:A 0
3 *36:15 0.000640685
4 *36:9 0.00255385
5 *36:9 *659:B1 0
6 *36:9 *781:A 8.97484e-05
7 *36:9 *83:18 0.000215791
8 *36:9 *88:21 0
9 *36:9 *90:8 0
10 *36:9 *142:27 0
11 *36:9 *145:10 0
12 *36:9 *146:8 0.000127488
13 *36:9 *158:235 0
14 *36:9 *198:12 0
15 *36:9 *200:26 9.74235e-05
16 *36:9 *217:49 0
17 *36:9 *218:10 0.000125802
18 *36:9 *218:16 0.000346532
19 *36:9 *218:119 0.000123326
20 *36:15 *717:A1 0.000141246
21 *36:15 *717:A2 0.000315852
*RES
1 clk *36:9 37.3102 
2 *36:9 *36:15 28.9821 
3 *36:15 *751:A 23 
*END

*D_NET *37 0.000659836
*CONN
*P en I
*I *781:A I *D sky130_fd_sc_hd__buf_4
*CAP
1 en 0.000216432
2 *781:A 0.000216432
3 *781:A *782:A 8.97484e-05
4 *781:A *217:12 3.30197e-05
5 *781:A *217:49 1.44546e-05
6 *36:9 *781:A 8.97484e-05
*RES
1 en *781:A 48.5734 
*END

*D_NET *38 0.000791129
*CONN
*P rst_n I
*I *782:A I *D sky130_fd_sc_hd__clkbuf_8
*CAP
1 rst_n 0.000270015
2 *782:A 0.000270015
3 *782:A sum[11] 8.73764e-05
4 *782:A *217:12 7.39745e-05
5 *781:A *782:A 8.97484e-05
*RES
1 rst_n *782:A 49.6298 
*END

*D_NET *39 0.000864283
*CONN
*P sum[0] O
*I *790:X O *D sky130_fd_sc_hd__buf_1
*CAP
1 sum[0] 0.000432142
2 *790:X 0.000432142
3 sum[0] sum[1] 0
4 sum[0] sum[2] 0
*RES
1 *790:X sum[0] 46.6171 
*END

*D_NET *40 0.000561007
*CONN
*P sum[10] O
*I *791:X O *D sky130_fd_sc_hd__buf_1
*CAP
1 sum[10] 0.000182511
2 *791:X 0.000182511
3 sum[10] *221:10 2.74987e-05
4 *764:A sum[10] 8.11094e-05
5 *767:A sum[10] 8.73764e-05
*RES
1 *791:X sum[10] 47.5169 
*END

*D_NET *41 0.000607854
*CONN
*P sum[11] O
*I *792:X O *D sky130_fd_sc_hd__buf_1
*CAP
1 sum[11] 0.000219684
2 *792:X 0.000219684
3 sum[11] *217:27 0
4 *777:A sum[11] 8.11094e-05
5 *782:A sum[11] 8.73764e-05
*RES
1 *792:X sum[11] 47.1648 
*END

*D_NET *42 0.000980411
*CONN
*P sum[12] O
*I *793:X O *D sky130_fd_sc_hd__buf_1
*CAP
1 sum[12] 0.000490205
2 *793:X 0.000490205
3 sum[12] sum[6] 0
4 sum[12] sum[8] 0
*RES
1 *793:X sum[12] 48.73 
*END

*D_NET *43 0.000864283
*CONN
*P sum[13] O
*I *794:X O *D sky130_fd_sc_hd__buf_1
*CAP
1 sum[13] 0.000432142
2 *794:X 0.000432142
3 sum[13] sum[2] 0
4 *786:A sum[13] 0
*RES
1 *794:X sum[13] 46.6171 
*END

*D_NET *44 0.000515401
*CONN
*P sum[14] O
*I *795:X O *D sky130_fd_sc_hd__buf_1
*CAP
1 sum[14] 0.000169153
2 *795:X 0.000169153
3 sum[14] *235:19 8.61037e-06
4 *768:A sum[14] 8.11094e-05
5 *783:A sum[14] 8.73764e-05
*RES
1 *795:X sum[14] 47.1648 
*END

*D_NET *45 0.000857117
*CONN
*P sum[15] O
*I *796:X O *D sky130_fd_sc_hd__buf_1
*CAP
1 sum[15] 0.000428559
2 *796:X 0.000428559
3 *770:A sum[15] 0
*RES
1 *796:X sum[15] 46.6171 
*END

*D_NET *46 0.000857926
*CONN
*P sum[1] O
*I *797:X O *D sky130_fd_sc_hd__buf_1
*CAP
1 sum[1] 0.000428963
2 *797:X 0.000428963
3 sum[1] sum[3] 0
4 sum[0] sum[1] 0
*RES
1 *797:X sum[1] 46.6171 
*END

*D_NET *47 0.000864283
*CONN
*P sum[2] O
*I *798:X O *D sky130_fd_sc_hd__buf_1
*CAP
1 sum[2] 0.000432142
2 *798:X 0.000432142
3 sum[0] sum[2] 0
4 sum[13] sum[2] 0
*RES
1 *798:X sum[2] 46.6171 
*END

*D_NET *48 0.000798495
*CONN
*P sum[3] O
*I *799:X O *D sky130_fd_sc_hd__buf_1
*CAP
1 sum[3] 0.000399248
2 *799:X 0.000399248
3 sum[1] sum[3] 0
*RES
1 *799:X sum[3] 46.7621 
*END

*D_NET *49 0.000691324
*CONN
*P sum[4] O
*I *800:X O *D sky130_fd_sc_hd__buf_1
*CAP
1 sum[4] 0.000321083
2 *800:X 0.000321083
3 *756:A sum[4] 2.12457e-05
4 *757:A sum[4] 2.79122e-05
*RES
1 *800:X sum[4] 49.8062 
*END

*D_NET *50 0.000659205
*CONN
*P sum[5] O
*I *801:X O *D sky130_fd_sc_hd__buf_1
*CAP
1 sum[5] 0.000283354
2 *801:X 0.000283354
3 sum[5] *185:10 0
4 sum[5] *232:12 4.334e-05
5 *757:A sum[5] 0
6 *758:A sum[5] 0
7 *29:17 sum[5] 2.79122e-05
8 *30:17 sum[5] 2.12457e-05
*RES
1 *801:X sum[5] 48.4875 
*END

*D_NET *51 0.000980411
*CONN
*P sum[6] O
*I *802:X O *D sky130_fd_sc_hd__buf_1
*CAP
1 sum[6] 0.000490205
2 *802:X 0.000490205
3 sum[6] sum[7] 0
4 sum[12] sum[6] 0
*RES
1 *802:X sum[6] 48.73 
*END

*D_NET *52 0.000980411
*CONN
*P sum[7] O
*I *803:X O *D sky130_fd_sc_hd__buf_1
*CAP
1 sum[7] 0.000490205
2 *803:X 0.000490205
3 sum[6] sum[7] 0
*RES
1 *803:X sum[7] 48.73 
*END

*D_NET *53 0.000980411
*CONN
*P sum[8] O
*I *804:X O *D sky130_fd_sc_hd__buf_1
*CAP
1 sum[8] 0.000490205
2 *804:X 0.000490205
3 sum[12] sum[8] 0
4 *761:A sum[8] 0
*RES
1 *804:X sum[8] 48.73 
*END

*D_NET *54 0.000980411
*CONN
*P sum[9] O
*I *805:X O *D sky130_fd_sc_hd__buf_1
*CAP
1 sum[9] 0.000490205
2 *805:X 0.000490205
3 *761:A sum[9] 0
4 *780:A sum[9] 0
*RES
1 *805:X sum[9] 48.73 
*END

*D_NET *55 0.00103508
*CONN
*I *734:D I *D sky130_fd_sc_hd__dfrtp_1
*I *677:Y O *D sky130_fd_sc_hd__a2bb2oi_1
*CAP
1 *734:D 0
2 *677:Y 0.000360124
3 *55:10 0.000360124
4 *55:10 *217:158 4.5051e-05
5 *55:10 *217:162 0.000269781
6 *55:10 *225:16 0
7 *55:10 *229:21 0
*RES
1 *677:Y *55:10 43.51 
2 *55:10 *734:D 38 
*END

*D_NET *56 0.000571798
*CONN
*I *735:D I *D sky130_fd_sc_hd__dfrtp_1
*I *680:X O *D sky130_fd_sc_hd__a2bb2o_1
*CAP
1 *735:D 0.000131153
2 *680:X 5.82533e-05
3 *56:8 0.000189406
4 *735:D *189:54 7.64872e-05
5 *735:D *189:74 2.93431e-05
6 *56:8 *116:8 8.71559e-05
*RES
1 *680:X *56:8 39.2014 
2 *56:8 *735:D 39.9523 
*END

*D_NET *57 0.000577617
*CONN
*I *736:D I *D sky130_fd_sc_hd__dfrtp_1
*I *684:X O *D sky130_fd_sc_hd__o31a_1
*CAP
1 *736:D 2.21816e-05
2 *684:X 0.00012429
3 *57:10 0.000146472
4 *736:D *117:10 2.93747e-05
5 *736:D *189:74 5.3304e-05
6 *57:10 *117:10 0.000108681
7 *57:10 *118:12 5.56279e-05
8 *57:10 *191:70 3.76854e-05
*RES
1 *684:X *57:10 40.175 
2 *57:10 *736:D 38.6214 
*END

*D_NET *58 0.000820591
*CONN
*I *737:D I *D sky130_fd_sc_hd__dfrtp_1
*I *687:X O *D sky130_fd_sc_hd__a21o_1
*CAP
1 *737:D 0
2 *687:X 0.000125486
3 *58:6 0.000125486
4 *58:6 *687:A2 0.000126847
5 *58:6 *158:114 0.000184527
6 *58:6 *158:123 0.000258245
*RES
1 *687:X *58:6 27.9093 
2 *58:6 *737:D 23 
*END

*D_NET *59 0.000829835
*CONN
*I *738:D I *D sky130_fd_sc_hd__dfrtp_1
*I *690:X O *D sky130_fd_sc_hd__a2bb2o_1
*CAP
1 *738:D 3.15292e-05
2 *690:X 0.000325358
3 *59:10 0.000356887
4 *738:D *738:CLK 2.91016e-05
5 *59:10 *690:A2_N 8.15864e-05
6 *59:10 *690:B2 5.37348e-06
7 *59:10 *177:21 0
8 *59:10 *230:10 0
*RES
1 *690:X *59:10 42.9093 
2 *59:10 *738:D 38.6214 
*END

*D_NET *60 0.000990195
*CONN
*I *739:D I *D sky130_fd_sc_hd__dfrtp_1
*I *693:X O *D sky130_fd_sc_hd__a2bb2o_1
*CAP
1 *739:D 0
2 *693:X 0.000419957
3 *60:8 0.000419957
4 *60:8 *739:RESET_B 0.000127252
5 *60:8 *231:8 2.30292e-05
*RES
1 *693:X *60:8 31.7414 
2 *60:8 *739:D 23 
*END

*D_NET *61 0.000476802
*CONN
*I *740:D I *D sky130_fd_sc_hd__dfrtp_1
*I *698:X O *D sky130_fd_sc_hd__o31a_1
*CAP
1 *740:D 2.40884e-05
2 *698:X 0.000142255
3 *61:10 0.000166343
4 *740:D *190:28 2.91016e-05
5 *740:D *232:12 1.83327e-05
6 *61:10 *698:A3 3.22879e-05
7 *61:10 *77:8 0
8 *61:10 *128:10 6.4393e-05
*RES
1 *698:X *61:10 40.5271 
2 *61:10 *740:D 38.6214 
*END

*D_NET *62 0.000237507
*CONN
*I *741:D I *D sky130_fd_sc_hd__dfrtp_1
*I *703:X O *D sky130_fd_sc_hd__o21a_1
*CAP
1 *741:D 0
2 *703:X 9.63252e-05
3 *62:8 9.63252e-05
4 *62:8 *134:16 4.48568e-05
*RES
1 *703:X *62:8 39.9057 
2 *62:8 *741:D 38 
*END

*D_NET *63 0.000922884
*CONN
*I *742:D I *D sky130_fd_sc_hd__dfrtp_1
*I *707:X O *D sky130_fd_sc_hd__a31o_1
*CAP
1 *742:D 0
2 *707:X 0.000274623
3 *63:10 0.000274623
4 *63:10 *707:A1 2.02872e-05
5 *63:10 *134:16 0.00018304
6 *63:10 *137:10 2.84809e-05
7 *63:10 *190:87 0.000111852
8 *63:10 *217:75 2.9978e-05
*RES
1 *707:X *63:10 42.785 
2 *63:10 *742:D 38 
*END

*D_NET *64 0.00108532
*CONN
*I *743:D I *D sky130_fd_sc_hd__dfrtp_1
*I *709:X O *D sky130_fd_sc_hd__mux2_1
*CAP
1 *743:D 0
2 *709:X 0.00037483
3 *64:8 0.00037483
4 *64:8 *709:A1 2.93845e-05
5 *64:8 *158:235 0
6 *64:8 *190:66 0.000178734
7 *64:8 *218:142 0.000127537
*RES
1 *709:X *64:8 31.7414 
2 *64:8 *743:D 23 
*END

*D_NET *65 0.000529348
*CONN
*I *744:D I *D sky130_fd_sc_hd__dfrtp_1
*I *713:X O *D sky130_fd_sc_hd__o2bb2a_1
*CAP
1 *744:D 0
2 *713:X 0.000184887
3 *65:10 0.000184887
4 *65:10 *744:CLK 6.48049e-05
5 *65:10 *804:A 0
6 *65:10 *141:8 4.06408e-05
7 *65:10 *217:53 5.41288e-05
*RES
1 *713:X *65:10 41.7079 
2 *65:10 *744:D 38 
*END

*D_NET *66 0.000207335
*CONN
*I *745:D I *D sky130_fd_sc_hd__dfrtp_1
*I *717:Y O *D sky130_fd_sc_hd__a21oi_1
*CAP
1 *745:D 0
2 *717:Y 0.000103667
3 *66:8 0.000103667
4 *66:8 *218:16 0
*RES
1 *717:Y *66:8 39.9057 
2 *66:8 *745:D 38 
*END

*D_NET *67 0.000565105
*CONN
*I *746:D I *D sky130_fd_sc_hd__dfrtp_1
*I *722:X O *D sky130_fd_sc_hd__o31a_1
*CAP
1 *746:D 0.000153206
2 *722:X 7.59234e-05
3 *67:8 0.00022913
4 *746:D *190:55 5.12254e-05
5 *67:8 *158:235 5.56203e-05
*RES
1 *722:X *67:8 39.5536 
2 *67:8 *746:D 40.5271 
*END

*D_NET *68 0.00121117
*CONN
*I *747:D I *D sky130_fd_sc_hd__dfrtp_1
*I *725:Y O *D sky130_fd_sc_hd__a21oi_1
*CAP
1 *747:D 0
2 *725:Y 0.000498549
3 *68:10 0.000498549
4 *68:10 *725:A1 9.84851e-05
5 *68:10 *725:A2 1.14762e-05
6 *68:10 *753:A 0
7 *68:10 *190:28 7.31082e-05
8 *68:10 *218:173 3.10069e-05
*RES
1 *725:Y *68:10 45.7471 
2 *68:10 *747:D 38 
*END

*D_NET *69 0.00136957
*CONN
*I *748:D I *D sky130_fd_sc_hd__dfrtp_1