*SPEF "ieee 1481-1999"
*DESIGN "adder16"
*DATE "20:54:46 Friday November 28, 2025"
*VENDOR "The OpenROAD Project"
*PROGRAM "OpenROAD"
*VERSION "edf00dff99f6c40d67a30c0e22a8191c5d2ed9d6"
*DESIGN_FLOW "NAME_SCOPE LOCAL" "PIN_CAP NONE"
*DIVIDER /
*DELIMITER :
*BUS_DELIMITER []
*T_UNIT 1 NS
*C_UNIT 1 PF
*R_UNIT 1 OHM
*L_UNIT 1 HENRY

*NAME_MAP
*3 a[0]
*4 a[10]
*5 a[11]
*6 a[12]
*7 a[13]
*8 a[14]
*9 a[15]
*10 a[1]
*11 a[2]
*12 a[3]
*13 a[4]
*14 a[5]
*15 a[6]
*16 a[7]
*17 a[8]
*18 a[9]
*19 b[0]
*20 b[10]
*21 b[11]
*22 b[12]
*23 b[13]
*24 b[14]
*25 b[15]
*26 b[1]
*27 b[2]
*28 b[3]
*29 b[4]
*30 b[5]
*31 b[6]
*32 b[7]
*33 b[8]
*34 b[9]
*35 carry
*36 clk
*37 en
*38 rst_n
*39 sum[0]
*40 sum[10]
*41 sum[11]
*42 sum[12]
*43 sum[13]
*44 sum[14]
*45 sum[15]
*46 sum[1]
*47 sum[2]
*48 sum[3]
*49 sum[4]
*50 sum[5]
*51 sum[6]
*52 sum[7]
*53 sum[8]
*54 sum[9]
*55 _000_
*56 _001_
*57 _002_
*58 _003_
*59 _004_
*60 _005_
*61 _006_
*62 _007_
*63 _008_
*64 _009_
*65 _010_
*66 _011_
*67 _012_
*68 _013_
*69 _014_
*70 _015_
*71 _016_
*72 _017_
*73 _018_
*74 _019_
*75 _020_
*76 _021_
*77 _022_
*78 _023_
*79 _024_
*80 _025_
*81 _026_
*82 _027_
*83 _028_
*84 _029_
*85 _030_
*86 _031_
*87 _032_
*88 _033_
*89 _034_
*90 _035_
*91 _036_
*92 _037_
*93 _038_
*94 _039_
*95 _040_
*96 _041_
*97 _042_
*98 _043_
*99 _044_
*100 _045_
*101 _046_
*102 _047_
*103 _048_
*104 _049_
*105 _050_
*106 _051_
*107 _052_
*108 _053_
*109 _054_
*110 _055_
*111 _056_
*112 _057_
*113 _058_
*114 _059_
*115 _060_
*116 _061_
*117 _062_
*118 _063_
*119 _064_
*120 _065_
*121 _066_
*122 _067_
*123 _068_
*124 _069_
*125 _070_
*126 _071_
*127 _072_
*128 _073_
*129 _074_
*130 _075_
*131 _076_
*132 _077_
*133 _078_
*134 _079_
*135 _080_
*136 _081_
*137 _082_
*138 _083_
*139 _084_
*140 _085_
*141 _086_
*142 _087_
*143 _088_
*144 _089_
*145 _090_
*146 _091_
*147 _092_
*148 _093_
*149 _094_
*150 _095_
*151 _096_
*152 _097_
*153 _098_
*154 _099_
*155 _100_
*156 _101_
*157 _102_
*158 _103_
*159 _104_
*160 _105_
*161 _106_
*162 _107_
*163 _108_
*164 _109_
*165 _110_
*166 _111_
*167 clknet_0_clk
*168 clknet_1_0__leaf_clk
*169 clknet_1_1__leaf_clk
*170 net1
*171 net10
*172 net11
*173 net12
*174 net13
*175 net14
*176 net15
*177 net16
*178 net17
*179 net18
*180 net19
*181 net2
*182 net20
*183 net21
*184 net22
*185 net23
*186 net24
*187 net25
*188 net26
*189 net27
*190 net28
*191 net29
*192 net3
*193 net30
*194 net31
*195 net32
*196 net33
*197 net34
*198 net35
*199 net36
*200 net37
*201 net38
*202 net39
*203 net4
*204 net40
*205 net41
*206 net42
*207 net43
*208 net44
*209 net45
*210 net46
*211 net47
*212 net48
*213 net49
*214 net5
*215 net50
*216 net51
*217 net52
*218 net53
*219 net54
*220 net55
*221 net56
*222 net57
*223 net58
*224 net6
*225 net64
*226 net66
*227 net67
*228 net68
*229 net69
*230 net7
*231 net70
*232 net71
*233 net72
*234 net73
*235 net74
*236 net75
*237 net76
*238 net77
*239 net78
*240 net79
*241 net8
*242 net80
*243 net81
*244 net9
*245 FILLER_0_104
*246 FILLER_0_26
*247 FILLER_0_29
*248 FILLER_0_3
*249 FILLER_0_35
*250 FILLER_0_54
*251 FILLER_0_57
*252 FILLER_0_7
*253 FILLER_0_70
*254 FILLER_0_82
*255 FILLER_0_91
*256 FILLER_10_14
*257 FILLER_10_18
*258 FILLER_10_22
*259 FILLER_10_29
*260 FILLER_10_39
*261 FILLER_10_7
*262 FILLER_10_71
*263 FILLER_10_83
*264 FILLER_10_85
*265 FILLER_10_93
*266 FILLER_11_10
*267 FILLER_11_18
*268 FILLER_11_55
*269 FILLER_11_57
*270 FILLER_11_69
*271 FILLER_11_81
*272 FILLER_11_85
*273 FILLER_12_107
*274 FILLER_12_29
*275 FILLER_12_3
*276 FILLER_12_41
*277 FILLER_12_53
*278 FILLER_12_77
*279 FILLER_12_83
*280 FILLER_12_85
*281 FILLER_13_107
*282 FILLER_13_12
*283 FILLER_13_21
*284 FILLER_13_3
*285 FILLER_13_33
*286 FILLER_13_41
*287 FILLER_13_47
*288 FILLER_13_55
*289 FILLER_13_57
*290 FILLER_13_79
*291 FILLER_13_91
*292 FILLER_13_95
*293 FILLER_14_16
*294 FILLER_14_29
*295 FILLER_14_35
*296 FILLER_14_51
*297 FILLER_14_6
*298 FILLER_14_79
*299 FILLER_14_83
*300 FILLER_14_85
*301 FILLER_14_91
*302 FILLER_15_42
*303 FILLER_15_50
*304 FILLER_15_6
*305 FILLER_15_72
*306 FILLER_15_80
*307 FILLER_16_29
*308 FILLER_16_47
*309 FILLER_16_6
*310 FILLER_16_83
*311 FILLER_16_85
*312 FILLER_17_15
*313 FILLER_17_3
*314 FILLER_17_62
*315 FILLER_17_73
*316 FILLER_17_84
*317 FILLER_17_96
*318 FILLER_18_15
*319 FILLER_18_23
*320 FILLER_18_29
*321 FILLER_18_3
*322 FILLER_18_34
*323 FILLER_18_42
*324 FILLER_18_57
*325 FILLER_18_62
*326 FILLER_18_83
*327 FILLER_18_85
*328 FILLER_1_11
*329 FILLER_1_3
*330 FILLER_1_64
*331 FILLER_1_89
*332 FILLER_2_3
*333 FILLER_2_7
*334 FILLER_2_82
*335 FILLER_3_3
*336 FILLER_3_37
*337 FILLER_3_41
*338 FILLER_3_57
*339 FILLER_3_66
*340 FILLER_3_74
*341 FILLER_3_86
*342 FILLER_4_103
*343 FILLER_4_15
*344 FILLER_4_27
*345 FILLER_4_3
*346 FILLER_4_44
*347 FILLER_4_50
*348 FILLER_4_58
*349 FILLER_4_69
*350 FILLER_4_74
*351 FILLER_4_82
*352 FILLER_4_85
*353 FILLER_4_93
*354 FILLER_5_21
*355 FILLER_5_27
*356 FILLER_5_35
*357 FILLER_5_83
*358 FILLER_5_9
*359 FILLER_6_107
*360 FILLER_6_13
*361 FILLER_6_29
*362 FILLER_6_3
*363 FILLER_6_35
*364 FILLER_6_56
*365 FILLER_6_62
*366 FILLER_6_83
*367 FILLER_6_85
*368 FILLER_7_10
*369 FILLER_7_3
*370 FILLER_7_52
*371 FILLER_7_65
*372 FILLER_7_70
*373 FILLER_7_83
*374 FILLER_7_89
*375 FILLER_8_112
*376 FILLER_8_29
*377 FILLER_8_35
*378 FILLER_8_45
*379 FILLER_8_57
*380 FILLER_8_69
*381 FILLER_8_79
*382 FILLER_8_83
*383 FILLER_8_85
*384 FILLER_9_19
*385 FILLER_9_31
*386 FILLER_9_43
*387 FILLER_9_55
*388 FILLER_9_57
*389 FILLER_9_6
*390 FILLER_9_65
*391 FILLER_9_94
*392 PHY_EDGE_ROW_0_Left_19
*393 PHY_EDGE_ROW_0_Right_0
*394 PHY_EDGE_ROW_10_Left_29
*395 PHY_EDGE_ROW_10_Right_10
*396 PHY_EDGE_ROW_11_Left_30
*397 PHY_EDGE_ROW_11_Right_11
*398 PHY_EDGE_ROW_12_Left_31
*399 PHY_EDGE_ROW_12_Right_12
*400 PHY_EDGE_ROW_13_Left_32
*401 PHY_EDGE_ROW_13_Right_13
*402 PHY_EDGE_ROW_14_Left_33
*403 PHY_EDGE_ROW_14_Right_14
*404 PHY_EDGE_ROW_15_Left_34
*405 PHY_EDGE_ROW_15_Right_15
*406 PHY_EDGE_ROW_16_Left_35
*407 PHY_EDGE_ROW_16_Right_16
*408 PHY_EDGE_ROW_17_Left_36
*409 PHY_EDGE_ROW_17_Right_17
*410 PHY_EDGE_ROW_18_Left_37
*411 PHY_EDGE_ROW_18_Right_18
*412 PHY_EDGE_ROW_1_Left_20
*413 PHY_EDGE_ROW_1_Right_1
*414 PHY_EDGE_ROW_2_Left_21
*415 PHY_EDGE_ROW_2_Right_2
*416 PHY_EDGE_ROW_3_Left_22
*417 PHY_EDGE_ROW_3_Right_3
*418 PHY_EDGE_ROW_4_Left_23
*419 PHY_EDGE_ROW_4_Right_4
*420 PHY_EDGE_ROW_5_Left_24
*421 PHY_EDGE_ROW_5_Right_5
*422 PHY_EDGE_ROW_6_Left_25
*423 PHY_EDGE_ROW_6_Right_6
*424 PHY_EDGE_ROW_7_Left_26
*425 PHY_EDGE_ROW_7_Right_7
*426 PHY_EDGE_ROW_8_Left_27
*427 PHY_EDGE_ROW_8_Right_8
*428 PHY_EDGE_ROW_9_Left_28
*429 PHY_EDGE_ROW_9_Right_9
*430 TAP_TAPCELL_ROW_0_38
*431 TAP_TAPCELL_ROW_0_39
*432 TAP_TAPCELL_ROW_0_40
*433 TAP_TAPCELL_ROW_0_41
*434 TAP_TAPCELL_ROW_10_60
*435 TAP_TAPCELL_ROW_10_61
*436 TAP_TAPCELL_ROW_11_62
*437 TAP_TAPCELL_ROW_11_63
*438 TAP_TAPCELL_ROW_12_64
*439 TAP_TAPCELL_ROW_12_65
*440 TAP_TAPCELL_ROW_13_66
*441 TAP_TAPCELL_ROW_13_67
*442 TAP_TAPCELL_ROW_14_68
*443 TAP_TAPCELL_ROW_14_69
*444 TAP_TAPCELL_ROW_15_70
*445 TAP_TAPCELL_ROW_15_71
*446 TAP_TAPCELL_ROW_16_72
*447 TAP_TAPCELL_ROW_16_73
*448 TAP_TAPCELL_ROW_17_74
*449 TAP_TAPCELL_ROW_17_75
*450 TAP_TAPCELL_ROW_18_76
*451 TAP_TAPCELL_ROW_18_77
*452 TAP_TAPCELL_ROW_18_78
*453 TAP_TAPCELL_ROW_18_79
*454 TAP_TAPCELL_ROW_1_42
*455 TAP_TAPCELL_ROW_1_43
*456 TAP_TAPCELL_ROW_2_44
*457 TAP_TAPCELL_ROW_2_45
*458 TAP_TAPCELL_ROW_3_46
*459 TAP_TAPCELL_ROW_3_47
*460 TAP_TAPCELL_ROW_4_48
*461 TAP_TAPCELL_ROW_4_49
*462 TAP_TAPCELL_ROW_5_50
*463 TAP_TAPCELL_ROW_5_51
*464 TAP_TAPCELL_ROW_6_52
*465 TAP_TAPCELL_ROW_6_53
*466 TAP_TAPCELL_ROW_7_54
*467 TAP_TAPCELL_ROW_7_55
*468 TAP_TAPCELL_ROW_8_56
*469 TAP_TAPCELL_ROW_8_57
*470 TAP_TAPCELL_ROW_9_58
*471 TAP_TAPCELL_ROW_9_59
*472 _112_
*473 _113_
*474 _114_
*475 _115_
*476 _116_
*477 _117_
*478 _118_
*479 _119_
*480 _120_
*481 _121_
*482 _122_
*483 _123_
*484 _124_
*485 _125_
*486 _126_
*487 _127_
*488 _128_
*489 _129_
*490 _130_
*491 _131_
*492 _132_
*493 _133_
*494 _134_
*495 _135_
*496 _136_
*497 _137_
*498 _138_
*499 _139_
*500 _140_
*501 _141_
*502 _142_
*503 _143_
*504 _144_
*505 _145_
*506 _146_
*507 _147_
*508 _148_
*509 _149_
*510 _150_
*511 _151_
*512 _152_
*513 _153_
*514 _154_
*515 _155_
*516 _156_
*517 _157_
*518 _158_
*519 _159_
*520 _160_
*521 _161_
*522 _162_
*523 _163_
*524 _164_
*525 _165_
*526 _166_
*527 _167_
*528 _168_
*529 _169_
*530 _170_
*531 _171_
*532 _172_
*533 _173_
*534 _174_
*535 _175_
*536 _176_
*537 _177_
*538 _178_
*539 _179_
*540 _180_
*541 _181_
*542 _182_
*543 _183_
*544 _184_
*545 _185_
*546 _186_
*547 _187_
*548 _188_
*549 _189_
*550 _190_
*551 _191_
*552 _192_
*553 _193_
*554 _194_
*555 _195_
*556 _196_
*557 _197_
*558 _198_
*559 _199_
*560 _200_
*561 _201_
*562 _202_
*563 _203_
*564 _204_
*565 _205_
*566 _206_
*567 _207_
*568 _208_
*569 _209_
*570 _210_
*571 _211_
*572 _212_
*573 _213_
*574 _214_
*575 _215_
*576 _216_
*577 _217_
*578 _218_
*579 _219_
*580 _220_
*581 _221_
*582 _222_
*583 _223_
*584 _224_
*585 _225_
*586 _226_
*587 _227_
*588 _228_
*589 _229_
*590 _230_
*591 _231_
*592 _232_
*593 _233_
*594 _234_
*595 _235_
*596 _236_
*597 _237_
*598 _238_
*599 _239_
*600 _240_
*601 clkbuf_0_clk
*602 clkbuf_1_0__f_clk
*603 clkbuf_1_1__f_clk
*604 clkload0
*605 fanout52
*606 fanout53
*607 fanout54
*608 fanout55
*609 hold11
*610 hold12
*611 hold13
*612 hold14
*613 hold15
*614 hold16
*615 hold17
*616 hold18
*617 hold19
*618 hold20
*619 hold21
*620 hold22
*621 hold23
*622 hold24
*623 hold25
*624 hold26
*625 input1
*626 input10
*627 input11
*628 input12
*629 input13
*630 input14
*631 input15
*632 input16
*633 input17
*634 input18
*635 input19
*636 input2
*637 input20
*638 input21
*639 input22
*640 input23
*641 input24
*642 input25
*643 input26
*644 input27
*645 input28
*646 input29
*647 input3
*648 input30
*649 input31
*650 input32
*651 input33
*652 input34
*653 input4
*654 input5
*655 input6
*656 input7
*657 input8
*658 input9
*659 output35
*660 output36
*661 output37
*662 output38
*663 output39
*664 output40
*665 output41
*666 output42
*667 output43
*668 output44
*669 output45
*670 output46
*671 output47
*672 output48
*673 output49
*674 output50
*675 output51
*676 rebuffer1
*677 rebuffer2
*678 rebuffer3
*679 rebuffer9

*PORTS
a[0] I
a[10] I
a[11] I
a[12] I
a[13] I
a[14] I
a[15] I
a[1] I
a[2] I
a[3] I
a[4] I
a[5] I
a[6] I
a[7] I
a[8] I
a[9] I
b[0] I
b[10] I
b[11] I
b[12] I
b[13] I
b[14] I
b[15] I
b[1] I
b[2] I
b[3] I
b[4] I
b[5] I
b[6] I
b[7] I
b[8] I
b[9] I
carry O
clk I
en I
rst_n I
sum[0] O
sum[10] O
sum[11] O
sum[12] O
sum[13] O
sum[14] O
sum[15] O
sum[1] O
sum[2] O
sum[3] O
sum[4] O
sum[5] O
sum[6] O
sum[7] O
sum[8] O
sum[9] O

*D_NET *3 0.000594354
*CONN
*P a[0] I
*I *625:A I *D sky130_fd_sc_hd__buf_1
*CAP
1 a[0] 0.000158746
2 *625:A 0.000158746
3 *625:A sum[3] 8.53361e-05
4 *625:A *613:A 0.000108647
5 *625:A *633:A 8.28789e-05
*RES
1 a[0] *625:A 5.86677 
*END

*D_NET *4 0.000488399
*CONN
*P a[10] I
*I *636:A I *D sky130_fd_sc_hd__buf_1
*CAP
1 a[10] 0.000225414
2 *636:A 0.000225414
3 *636:A *634:A 0
4 *636:A *635:A 3.14094e-05
5 *636:A *181:10 6.16226e-06
*RES
1 a[10] *636:A 5.35677 
*END

*D_NET *5 0.0015962
*CONN
*P a[11] I
*I *647:A I *D sky130_fd_sc_hd__clkbuf_1
*CAP
1 a[11] 0.000590569
2 *647:A 0.000590569
3 *647:A sum[10] 7.66811e-05
4 *647:A sum[9] 4.40446e-05
5 *647:A *567:A 1.83847e-05
6 *647:A *570:A2 0
7 *647:A *634:A 6.35352e-05
8 *647:A *675:A 0.000119756
9 *647:A *88:25 4.43682e-05
10 *647:A *192:8 4.82919e-05
*RES
1 a[11] *647:A 12.9052 
*END

*D_NET *6 0.000927762
*CONN
*P a[12] I
*I *653:A I *D sky130_fd_sc_hd__clkbuf_1
*CAP
1 a[12] 0.000463881
2 *653:A 0.000463881
3 *653:A sum[12] 0
4 *653:A *638:A 0
*RES
1 a[12] *653:A 11.685 
*END

*D_NET *7 0.00110189
*CONN
*P a[13] I
*I *654:A I *D sky130_fd_sc_hd__clkbuf_1
*CAP
1 a[13] 0.0005268
2 *654:A 0.0005268
3 *654:A sum[13] 0
4 *654:A *638:A 0
5 *654:A *655:A 0
6 *654:A *143:12 0
7 *654:A *214:8 4.82919e-05
*RES
1 a[13] *654:A 12.825 
*END

*D_NET *8 0.00370387
*CONN
*P a[14] I
*I *655:A I *D sky130_fd_sc_hd__clkbuf_1
*CAP
1 a[14] 0.0012471
2 *655:A 0.0012471
3 *655:A carry 0.000161529
4 *655:A sum[13] 9.5799e-06
5 *655:A *473:B 0.000389572
6 *655:A *640:A 0
7 *655:A *651:A 0.000215205
8 *655:A *656:A 0
9 *655:A *664:A 0
10 *655:A *136:18 3.59531e-06
11 *655:A *184:10 8.7152e-06
12 *655:A *185:18 0.000130014
13 *655:A *196:20 5.33172e-05
14 *655:A *230:16 0.000238137
15 *654:A *655:A 0
*RES
1 a[14] *655:A 26.2733 
*END

*D_NET *9 0.00311865
*CONN
*P a[15] I
*I *656:A I *D sky130_fd_sc_hd__clkbuf_1
*CAP
1 a[15] 0.00106737
2 *656:A 0.00106737
3 *656:A *475:B 9.25593e-05
4 *656:A *478:B 5.55258e-05
5 *656:A *534:C1 3.17398e-05
6 *656:A *583:A3 0.000233004
7 *656:A *608:A 7.06865e-05
8 *656:A *640:A 0
9 *656:A *659:A 1.03572e-05
10 *656:A *665:A 7.47284e-05
11 *656:A *139:6 8.8266e-05
12 *656:A *139:21 0.000113237
13 *656:A *141:8 8.57321e-05
14 *656:A *196:20 0.000128075
15 *656:A *230:16 0
16 *655:A *656:A 0
*RES
1 a[15] *656:A 25.42 
*END

*D_NET *10 0.00137565
*CONN
*P a[1] I
*I *657:A I *D sky130_fd_sc_hd__clkbuf_1
*CAP
1 a[1] 0.000529226
2 *657:A 0.000529226
3 *657:A sum[5] 9.06707e-05
4 *657:A *628:A 8.53113e-06
5 *657:A *641:A 0
6 *657:A *670:A 0.000154587
7 *657:A *671:A 0
8 *657:A *171:20 1.34503e-05
9 *657:A *173:10 4.99619e-05
*RES
1 a[1] *657:A 7.49943 
*END

*D_NET *11 0.00211184
*CONN
*P a[2] I
*I *658:A I *D sky130_fd_sc_hd__buf_1
*CAP
1 a[2] 0.000699121
2 *658:A 0.000699121
3 *658:A sum[1] 0.0001059
4 *658:A sum[3] 0.00012799
5 *658:A *540:B2 0.000172636
6 *658:A *633:A 0.000197264
7 *658:A *642:A 7.71338e-05
8 *658:A *151:10 1.1561e-05
9 *658:A *178:8 2.11084e-05
*RES
1 a[2] *658:A 16.0818 
*END

*D_NET *12 0.000712288
*CONN
*P a[3] I
*I *626:A I *D sky130_fd_sc_hd__buf_1
*CAP
1 a[3] 0.000356144
2 *626:A 0.000356144
3 *626:A *628:A 0
4 *626:A *671:A 0
*RES
1 a[3] *626:A 9.9 
*END

*D_NET *13 0.00101164
*CONN
*P a[4] I
*I *627:A I *D sky130_fd_sc_hd__clkbuf_1
*CAP
1 a[4] 0.000415027
2 *627:A 0.000415027
3 *627:A sum[4] 0
4 *627:A *644:A 0
5 *627:A *173:10 0.000163204
6 *627:A *189:12 1.83847e-05
*RES
1 a[4] *627:A 11.385 
*END

*D_NET *14 0.000892011
*CONN
*P a[5] I
*I *628:A I *D sky130_fd_sc_hd__clkbuf_1
*CAP
1 a[5] 0.00044174
2 *628:A 0.00044174
3 *628:A sum[4] 0
4 *626:A *628:A 0
5 *657:A *628:A 8.53113e-06
*RES
1 a[5] *628:A 12.375 
*END

*D_NET *15 0.000871346
*CONN
*P a[6] I
*I *629:A I *D sky130_fd_sc_hd__buf_6
*CAP
1 a[6] 0.000411527
2 *629:A 0.000411527
3 *629:A sum[8] 0
4 *629:A *497:B 4.82919e-05
5 *629:A *646:A 0
*RES
1 a[6] *629:A 10.905 
*END

*D_NET *16 0.000910881
*CONN
*P a[7] I
*I *630:A I *D sky130_fd_sc_hd__buf_6
*CAP
1 a[7] 0.000408638
2 *630:A 0.000408638
3 *630:A *648:A 8.65961e-05
4 *630:A *175:12 7.00889e-06
*RES
1 a[7] *630:A 10.695 
*END

*D_NET *17 0.000855469
*CONN
*P a[8] I
*I *631:A I *D sky130_fd_sc_hd__clkbuf_1
*CAP
1 a[8] 0.000292779
2 *631:A 0.000292779
3 *631:A *601:A 3.6993e-05
4 *631:A *632:A 0
5 *631:A *649:A 0.000232918
*RES
1 a[8] *631:A 8.80043 
*END

*D_NET *18 0.000826577
*CONN
*P a[9] I
*I *632:A I *D sky130_fd_sc_hd__clkbuf_1
*CAP
1 a[9] 0.000313673
2 *632:A 0.000313673
3 *632:A *520:A 2.11084e-05
4 *632:A *521:A 4.00541e-06
5 *632:A *649:A 2.24901e-05
6 *632:A *650:A 4.66616e-05
7 *632:A *675:A 4.9253e-06
8 *632:A *89:10 8.65905e-05
9 *632:A *177:6 1.34503e-05
10 *631:A *632:A 0
*RES
1 a[9] *632:A 8.5287 
*END

*D_NET *19 0.00137468
*CONN
*P b[0] I
*I *633:A I *D sky130_fd_sc_hd__buf_1
*CAP
1 b[0] 0.000356221
2 *633:A 0.000356221
3 *633:A sum[3] 9.31142e-05
4 *633:A *642:A 0.000115602
5 *633:A *219:38 0.000173378
6 *625:A *633:A 8.28789e-05
7 *658:A *633:A 0.000197264
*RES
1 b[0] *633:A 8.69483 
*END

*D_NET *20 0.000615791
*CONN
*P b[10] I
*I *634:A I *D sky130_fd_sc_hd__buf_1
*CAP
1 b[10] 0.000234438
2 *634:A 0.000234438
3 *634:A sum[10] 0
4 *634:A *635:A 2.24901e-05
5 *634:A *181:14 6.0889e-05
6 *636:A *634:A 0
7 *647:A *634:A 6.35352e-05
*RES
1 b[10] *634:A 6.37677 
*END

*D_NET *21 0.000615347
*CONN
*P b[11] I
*I *635:A I *D sky130_fd_sc_hd__buf_1
*CAP
1 b[11] 0.000280724
2 *635:A 0.000280724
3 *635:A *181:10 0
4 *634:A *635:A 2.24901e-05
5 *636:A *635:A 3.14094e-05
*RES
1 b[11] *635:A 7.5993 
*END

*D_NET *22 0.000983459
*CONN
*P b[12] I
*I *637:A I *D sky130_fd_sc_hd__clkbuf_1
*CAP
1 b[12] 0.00048951
2 *637:A 0.00048951
3 *637:A sum[11] 0
4 *637:A sum[12] 0
5 *637:A *662:A 4.43871e-06
*RES
1 b[12] *637:A 12.135 
*END

*D_NET *23 0.00120849
*CONN
*P b[13] I
*I *638:A I *D sky130_fd_sc_hd__clkbuf_1
*CAP
1 b[13] 0.000535807
2 *638:A 0.000535807
3 *638:A *479:B 2.30292e-05
4 *638:A *531:A 0
5 *638:A *531:B 5.53774e-05
6 *638:A *143:12 5.84694e-05
7 *653:A *638:A 0
8 *654:A *638:A 0
*RES
1 b[13] *638:A 13.275 
*END

*D_NET *24 0.00110827
*CONN
*P b[14] I
*I *639:A I *D sky130_fd_sc_hd__clkbuf_1
*CAP
1 b[14] 0.000495135
2 *639:A 0.000495135
3 *639:A sum[14] 0
4 *639:A *640:A 0
5 *639:A *651:A 3.91191e-05
6 *639:A *184:10 1.3758e-05
7 *639:A *196:20 4.82919e-05
8 *639:A *230:16 1.68332e-05
*RES
1 b[14] *639:A 12.135 
*END

*D_NET *25 0.00201461
*CONN
*P b[15] I
*I *640:A I *D sky130_fd_sc_hd__clkbuf_1
*CAP
1 b[15] 0.000985093
2 *640:A 0.000985093
3 *640:A sum[13] 0
4 *640:A sum[14] 3.49165e-05
5 *640:A *664:A 9.50342e-06
6 *640:A *665:A 0
7 *640:A *230:16 0
8 *639:A *640:A 0
9 *655:A *640:A 0
10 *656:A *640:A 0
*RES
1 b[15] *640:A 21.415 
*END

*D_NET *26 0.00181256
*CONN
*P b[1] I
*I *641:A I *D sky130_fd_sc_hd__clkbuf_1
*CAP
1 b[1] 0.000734765
2 *641:A 0.000734765
3 *641:A sum[1] 9.50048e-05
4 *641:A sum[5] 9.92338e-05
5 *641:A *486:B 2.97561e-05
6 *641:A *488:B 4.94404e-05
7 *641:A *217:36 5.09974e-05
8 *641:A *241:10 1.86013e-05
9 *657:A *641:A 0
*RES
1 b[1] *641:A 7.30903 
*END

*D_NET *27 0.00227647
*CONN
*P b[2] I
*I *642:A I *D sky130_fd_sc_hd__buf_1
*CAP
1 b[2] 0.00056673
2 *642:A 0.00056673
3 *642:A sum[1] 0
4 *642:A *485:B 7.21619e-05
5 *642:A *487:A 0
6 *642:A *489:A 0.000162311
7 *642:A *489:D 6.52265e-05
8 *642:A *540:B1 8.65905e-05
9 *642:A *540:B2 8.01864e-05
10 *642:A *554:S 0.000148424
11 *642:A *147:16 4.80285e-05
12 *642:A *149:14 1.83847e-05
13 *642:A *149:25 0.000102727
14 *642:A *187:10 0.000166235
15 *633:A *642:A 0.000115602
16 *658:A *642:A 7.71338e-05
*RES
1 b[2] *642:A 13.6298 
*END

*D_NET *28 0.00148987
*CONN
*P b[3] I
*I *643:A I *D sky130_fd_sc_hd__clkbuf_1
*CAP
1 b[3] 0.000644019
2 *643:A 0.000644019
3 *643:A *501:B 0.000110919
4 *643:A *508:A1 3.57924e-05
5 *643:A *644:A 0
6 *643:A *645:A 0
7 *643:A *164:10 2.16917e-05
8 *643:A *165:12 9.50342e-06
9 *643:A *173:10 2.39233e-05
*RES
1 b[3] *643:A 14.265 
*END

*D_NET *29 0.00115444
*CONN
*P b[4] I
*I *644:A I *D sky130_fd_sc_hd__clkbuf_1
*CAP
1 b[4] 0.000460324
2 *644:A 0.000460324
3 *644:A *500:A 9.50342e-06
4 *644:A *173:10 0.000203178
5 *644:A *188:12 2.11084e-05
6 *627:A *644:A 0
7 *643:A *644:A 0
*RES
1 b[4] *644:A 12.18 
*END

*D_NET *30 0.000912053
*CONN
*P b[5] I
*I *645:A I *D sky130_fd_sc_hd__clkbuf_1
*CAP
1 b[5] 0.000343118
2 *645:A 0.000343118
3 *645:A sum[6] 0
4 *645:A sum[8] 0.000217286
5 *645:A *674:A 8.53113e-06
6 *643:A *645:A 0
*RES
1 b[5] *645:A 10.695 
*END

*D_NET *31 0.000728879
*CONN
*P b[6] I
*I *646:A I *D sky130_fd_sc_hd__buf_6
*CAP
1 b[6] 0.00036444
2 *646:A 0.00036444
3 *646:A sum[7] 0
4 *629:A *646:A 0
*RES
1 b[6] *646:A 9.9 
*END

*D_NET *32 0.00122371
*CONN
*P b[7] I
*I *648:A I *D sky130_fd_sc_hd__buf_6
*CAP
1 b[7] 0.000544283
2 *648:A 0.000544283
3 *648:A sum[7] 0
4 *648:A *175:12 4.85494e-05
5 *630:A *648:A 8.65961e-05
*RES
1 b[7] *648:A 12.87 
*END

*D_NET *33 0.000710116
*CONN
*P b[8] I
*I *649:A I *D sky130_fd_sc_hd__clkbuf_1
*CAP
1 b[8] 0.000227354
2 *649:A 0.000227354
3 *631:A *649:A 0.000232918
4 *632:A *649:A 2.24901e-05
*RES
1 b[8] *649:A 7.3443 
*END

*D_NET *34 0.000691357
*CONN
*P b[9] I
*I *650:A I *D sky130_fd_sc_hd__clkbuf_1
*CAP
1 b[9] 0.000259111
2 *650:A 0.000259111
3 *650:A sum[10] 0
4 *650:A sum[9] 2.24901e-05
5 *650:A *88:21 0
6 *650:A *195:10 0.000103983
7 *632:A *650:A 4.66616e-05
*RES
1 b[9] *650:A 6.63177 
*END

*D_NET *35 0.00277168
*CONN
*P carry O
*I *659:X O *D sky130_fd_sc_hd__buf_2
*CAP
1 carry 0.000852007
2 *659:X 0.000852007
3 carry sum[15] 0.000102216
4 carry *473:B 5.82176e-05
5 carry *536:A 0.000198813
6 carry *537:B1 0
7 carry *584:RESET_B 4.13879e-05
8 carry *609:A 0.000196514
9 carry *651:A 0.000101392
10 carry *652:A 0
11 carry *136:18 0.0001249
12 carry *198:12 3.68967e-05
13 carry *219:27 4.58014e-05
14 *655:A carry 0.000161529
*RES
1 *659:X carry 16.0016 
*END

*D_NET *36 0.00573031
*CONN
*P clk I
*I *601:A I *D sky130_fd_sc_hd__clkbuf_16
*CAP
1 clk 0.00221194
2 *601:A 0.00221194
3 *601:A *497:A 0.000148475
4 *601:A *526:A2 0.000172838
5 *601:A *591:RESET_B 1.79483e-05
6 *601:A *602:A 0
7 *601:A *603:A 0
8 *601:A *75:10 0.000116158
9 *601:A *217:75 7.06865e-05
10 *601:A *217:77 0.000277716
11 *601:A *217:79 0.000465618
12 *631:A *601:A 3.6993e-05
*RES
1 clk *601:A 21.1586 
*END

*D_NET *37 0.00328426
*CONN
*P en I
*I *651:A I *D sky130_fd_sc_hd__clkbuf_1
*CAP
1 en 0.000961614
2 *651:A 0.000961614
3 *651:A *473:A 0.00048029
4 *651:A *609:A 8.95652e-05
5 *651:A *185:18 0.000378328
6 *651:A *230:16 5.71381e-05
7 carry *651:A 0.000101392
8 *639:A *651:A 3.91191e-05
9 *655:A *651:A 0.000215205
*RES
1 en *651:A 7.53283 
*END

*D_NET *38 0.000789216
*CONN
*P rst_n I
*I *609:A I *D sky130_fd_sc_hd__dlygate4sd3_1
*CAP
1 rst_n 0.000231492
2 *609:A 0.000231492
3 *609:A *198:12 4.01535e-05
4 carry *609:A 0.000196514
5 *651:A *609:A 8.95652e-05
*RES
1 rst_n *609:A 6.94503 
*END

*D_NET *39 0.000522445
*CONN
*P sum[0] O
*I *660:X O *D sky130_fd_sc_hd__buf_2
*CAP
1 sum[0] 0.000151138
2 *660:X 0.000151138
3 sum[0] sum[2] 9.25475e-05
4 sum[0] sum[3] 8.39845e-05
5 sum[0] *660:A 4.36369e-05
*RES
1 *660:X sum[0] 5.16003 
*END

*D_NET *40 0.000513689
*CONN
*P sum[10] O
*I *661:X O *D sky130_fd_sc_hd__buf_2
*CAP
1 sum[10] 0.000196508
2 *661:X 0.000196508
3 sum[10] sum[9] 2.85068e-05
4 sum[10] *570:A2 1.54862e-05
5 *634:A sum[10] 0
6 *647:A sum[10] 7.66811e-05
7 *650:A sum[10] 0
*RES
1 *661:X sum[10] 5.16003 
*END

*D_NET *41 0.000977835
*CONN
*P sum[11] O
*I *662:X O *D sky130_fd_sc_hd__buf_2
*CAP
1 sum[11] 0.000488918
2 *662:X 0.000488918
3 *637:A sum[11] 0
*RES
1 *662:X sum[11] 11.715 
*END

*D_NET *42 0.000992634
*CONN
*P sum[12] O
*I *663:X O *D sky130_fd_sc_hd__buf_2
*CAP
1 sum[12] 0.000471336
2 *663:X 0.000471336
3 sum[12] *143:12 4.99619e-05
4 *637:A sum[12] 0
5 *653:A sum[12] 0
*RES
1 *663:X sum[12] 11.925 
*END

*D_NET *43 0.000989747
*CONN
*P sum[13] O
*I *664:X O *D sky130_fd_sc_hd__buf_2
*CAP
1 sum[13] 0.000490084
2 *664:X 0.000490084
3 sum[13] sum[14] 0
4 *640:A sum[13] 0
5 *654:A sum[13] 0
6 *655:A sum[13] 9.5799e-06
*RES
1 *664:X sum[13] 11.715 
*END

*D_NET *44 0.00100159
*CONN
*P sum[14] O
*I *665:X O *D sky130_fd_sc_hd__buf_2
*CAP
1 sum[14] 0.000483335
2 *665:X 0.000483335
3 sum[13] sum[14] 0
4 *639:A sum[14] 0
5 *640:A sum[14] 3.49165e-05
*RES
1 *665:X sum[14] 11.715 
*END

*D_NET *45 0.00107616
*CONN
*P sum[15] O
*I *666:X O *D sky130_fd_sc_hd__buf_2
*CAP
1 sum[15] 0.000241154
2 *666:X 0.000241154
3 sum[15] sum[2] 0.000201194
4 sum[15] *217:14 0.000290444
5 carry sum[15] 0.000102216
*RES
1 *666:X sum[15] 8.0233 
*END

*D_NET *46 0.000913899
*CONN
*P sum[1] O
*I *667:X O *D sky130_fd_sc_hd__buf_2
*CAP
1 sum[1] 0.000236473
2 *667:X 0.000236473
3 sum[1] *151:10 0.000240048
4 *641:A sum[1] 9.50048e-05
5 *642:A sum[1] 0
6 *658:A sum[1] 0.0001059
*RES
1 *667:X sum[1] 7.45503 
*END

*D_NET *47 0.000643882
*CONN
*P sum[2] O
*I *668:X O *D sky130_fd_sc_hd__buf_2
*CAP
1 sum[2] 0.00017507
2 *668:X 0.00017507
3 sum[0] sum[2] 9.25475e-05
4 sum[15] sum[2] 0.000201194
*RES
1 *668:X sum[2] 5.92503 
*END

*D_NET *48 0.00156073
*CONN
*P sum[3] O
*I *669:X O *D sky130_fd_sc_hd__buf_2
*CAP
1 sum[3] 0.000364222
2 *669:X 0.000364222
3 sum[3] *540:B2 3.09164e-05
4 sum[3] *613:A 0.000284387
5 sum[3] *219:38 0.000126556
6 sum[0] sum[3] 8.39845e-05
7 *625:A sum[3] 8.53361e-05
8 *633:A sum[3] 9.31142e-05
9 *658:A sum[3] 0.00012799
*RES
1 *669:X sum[3] 10.8283 
*END

*D_NET *49 0.000860886
*CONN
*P sum[4] O
*I *670:X O *D sky130_fd_sc_hd__buf_2
*CAP
1 sum[4] 0.000387145
2 *670:X 0.000387145
3 sum[4] *173:10 8.65961e-05
4 *627:A sum[4] 0
5 *628:A sum[4] 0
*RES
1 *670:X sum[4] 10.185 
*END

*D_NET *50 0.0010705
*CONN
*P sum[5] O
*I *671:X O *D sky130_fd_sc_hd__buf_2
*CAP
1 sum[5] 0.000298838
2 *671:X 0.000298838
3 sum[5] *618:A 9.68348e-05
4 sum[5] *670:A 0
5 sum[5] *671:A 0.000186083
6 *641:A sum[5] 9.92338e-05
7 *657:A sum[5] 9.06707e-05
*RES
1 *671:X sum[5] 8.0233 
*END

*D_NET *51 0.000823085
*CONN
*P sum[6] O
*I *672:X O *D sky130_fd_sc_hd__buf_2
*CAP
1 sum[6] 0.000411543
2 *672:X 0.000411543
3 sum[6] sum[8] 0
4 *645:A sum[6] 0
*RES
1 *672:X sum[6] 10.185 
*END

*D_NET *52 0.000809097
*CONN
*P sum[7] O
*I *673:X O *D sky130_fd_sc_hd__buf_2
*CAP
1 sum[7] 0.000404548
2 *673:X 0.000404548
3 *646:A sum[7] 0
4 *648:A sum[7] 0
*RES
1 *673:X sum[7] 11.865 
*END

*D_NET *53 0.00143942
*CONN
*P sum[8] O
*I *674:X O *D sky130_fd_sc_hd__buf_2
*CAP
1 sum[8] 0.000597303
2 *674:X 0.000597303
3 sum[8] *674:A 2.75229e-05
4 sum[6] sum[8] 0
5 *629:A sum[8] 0
6 *645:A sum[8] 0.000217286
*RES
1 *674:X sum[8] 18.535 
*END

*D_NET *54 0.000666777
*CONN
*P sum[9] O
*I *675:X O *D sky130_fd_sc_hd__buf_2
*CAP
1 sum[9] 0.000285868
2 *675:X 0.000285868
3 sum[10] sum[9] 2.85068e-05
4 *647:A sum[9] 4.40446e-05
5 *650:A sum[9] 2.24901e-05
*RES
1 *675:X sum[9] 7.1793 
*END

*D_NET *55 0.000855936
*CONN
*I *584:D I *D sky130_fd_sc_hd__dfrtp_1
*I *537:Y O *D sky130_fd_sc_hd__a31oi_1
*CAP
1 *584:D 0.000255941
2 *537:Y 0.000255941
3 *584:D *473:B 8.34281e-06
4 *584:D *475:A 8.77898e-05
5 *584:D *537:A1 7.65177e-05
6 *584:D *537:B1 0.000171404
*RES
1 *537:Y *584:D 12.555 
*END

*D_NET *56 0.000844573
*CONN
*I *585:D I *D sky130_fd_sc_hd__dfrtp_1
*I *539:X O *D sky130_fd_sc_hd__mux2_1
*CAP
1 *585:D 0.000183474
2 *539:X 0.000183474
3 *585:D *539:S 0.000359105
4 *585:D *217:22 0.00011852
*RES
1 *539:X *585:D 10.755 
*END

*D_NET *57 0.000405797
*CONN
*I *586:D I *D sky130_fd_sc_hd__dfrtp_1
*I *542:X O *D sky130_fd_sc_hd__a21o_1
*CAP
1 *586:D 0.00010888
2 *542:X 0.00010888
3 *586:D *486:B 0.000117825
4 *586:D *542:A1 2.61299e-05
5 *586:D *217:36 4.40812e-05
*RES
1 *542:X *586:D 9.375 
*END

*D_NET *58 0.000571578
*CONN
*I *587:D I *D sky130_fd_sc_hd__dfrtp_1
*I *545:X O *D sky130_fd_sc_hd__a21o_1
*CAP
1 *587:D 0.000156467
2 *545:X 0.000156467
3 *587:D *545:A1 0.000163204
4 *587:D *545:A2 9.54399e-05
5 *587:D *585:CLK 0
*RES
1 *545:X *587:D 9.81 
*END

*D_NET *59 0.000345062
*CONN
*I *588:D I *D sky130_fd_sc_hd__dfrtp_1
*I *548:X O *D sky130_fd_sc_hd__a2bb2o_1
*CAP
1 *588:D 0.000145997
2 *548:X 0.000145997
3 *588:D *135:43 5.30673e-05
4 *588:D *135:60 0
*RES
1 *548:X *588:D 9.375 
*END

*D_NET *60 0.000642167
*CONN
*I *589:D I *D sky130_fd_sc_hd__dfrtp_1
*I *551:X O *D sky130_fd_sc_hd__a22o_1
*CAP
1 *589:D 0.000205692
2 *551:X 0.000205692
3 *589:D *552:A 8.40213e-05
4 *589:D *554:A1 9.54469e-05
5 *589:D *188:12 5.13155e-05
*RES
1 *551:X *589:D 10.965 
*END

*D_NET *61 0.000711354
*CONN
*I *590:D I *D sky130_fd_sc_hd__dfrtp_1
*I *554:X O *D sky130_fd_sc_hd__mux2_1
*CAP
1 *590:D 0.000237919
2 *554:X 0.000237919
3 *590:D *554:A1 0.000123225
4 *590:D *590:CLK 0
5 *590:D *168:77 0
6 *590:D *241:10 0.000112291
*RES
1 *554:X *590:D 11.505 
*END

*D_NET *62 0.00103719
*CONN
*I *591:D I *D sky130_fd_sc_hd__dfrtp_1
*I *557:X O *D sky130_fd_sc_hd__mux2_1
*CAP
1 *591:D 0.000333436
2 *557:X 0.000333436
3 *591:D *558:A2 0.000320339
4 *591:D *615:A 2.49909e-05
5 *591:D *160:14 2.49909e-05
*RES
1 *557:X *591:D 9.53 
*END

*D_NET *63 0.00241675
*CONN
*I *592:D I *D sky130_fd_sc_hd__dfrtp_1
*I *560:X O *D sky130_fd_sc_hd__mux2_1
*CAP
1 *592:D 0.000823582
2 *560:X 0.000823582
3 *592:D *509:A1 7.23533e-05
4 *592:D *558:B1 0.000310067
5 *592:D *592:CLK 0.000276768
6 *592:D *160:14 0.000110394
*RES
1 *560:X *592:D 18.54 
*END

*D_NET *64 0.000581144
*CONN
*I *593:D I *D sky130_fd_sc_hd__dfrtp_1
*I *562:X O *D sky130_fd_sc_hd__mux2_1
*CAP
1 *593:D 0.000163927
2 *562:X 0.000163927
3 *593:D *77:12 9.30787e-05
4 *593:D *168:12 0.000160211
*RES
1 *562:X *593:D 9.81 
*END

*D_NET *65 0.000520688
*CONN
*I *594:D I *D sky130_fd_sc_hd__dfrtp_1
*I *565:X O *D sky130_fd_sc_hd__mux2_1
*CAP
1 *594:D 0.000140548
2 *565:X 0.000140548
3 *594:D *565:A1 0
4 *594:D *565:S 0
5 *594:D *566:A1 7.63883e-05
6 *594:D *594:CLK 0
7 *594:D *594:RESET_B 0.000163204
*RES
1 *565:X *594:D 9.555 
*END

*D_NET *66 0.000179422
*CONN
*I *595:D I *D sky130_fd_sc_hd__dfrtp_1
*I *569:X O *D sky130_fd_sc_hd__mux2_1
*CAP
1 *595:D 8.9711e-05
2 *569:X 8.9711e-05
3 *595:D *568:B 0
4 *595:D *569:A1 0
5 *595:D *94:20 0
*RES
1 *569:X *595:D 8.58 
*END

*D_NET *67 0.000545119
*CONN
*I *596:D I *D sky130_fd_sc_hd__dfrtp_1
*I *572:X O *D sky130_fd_sc_hd__mux2_1
*CAP
1 *596:D 0.000272559
2 *572:X 0.000272559
3 *596:D *596:CLK 0
4 *596:D *169:35 0
*RES
1 *572:X *596:D 11.355 
*END

*D_NET *68 0.000869324
*CONN
*I *597:D I *D sky130_fd_sc_hd__dfrtp_1
*I *574:X O *D sky130_fd_sc_hd__mux2_1
*CAP
1 *597:D 0.000252022
2 *574:X 0.000252022
3 *597:D *596:RESET_B 2.16833e-05
4 *597:D *617:A 0.000200201
5 *597:D *662:A 2.60986e-05
6 *597:D *169:35 7.06865e-05
7 *597:D *201:6 4.66108e-05
*RES
1 *574:X *597:D 11.1 
*END

*D_NET *69 0.000656028
*CONN
*I *598:D I *D sky130_fd_sc_hd__dfrtp_1
*I *577:X O *D sky130_fd_sc_hd__a2bb2o_4
*CAP
1 *598:D 0.000291758
2 *577:X 0.000291758
3 *598:D *598:RESET_B 0
4 *598:D *599:CLK 0
5 *598:D *599:RESET_B 0
6 *598:D *603:A 7.25122e-05
*RES
1 *577:X *598:D 11.76 
*END

*D_NET *70 0.000423694
*CONN
*I *599:D I *D sky130_fd_sc_hd__dfrtp_1
*I *580:X O *D sky130_fd_sc_hd__a31o_1
*CAP
1 *599:D 0.00013449
2 *580:X 0.00013449
3 *599:D *578:B 7.06865e-05
4 *599:D *580:A3 0
5 *599:D *100:16 0
6 *599:D *220:36 8.40269e-05
*RES
1 *580:X *599:D 9.375 
*END

*D_NET *71 0.00117533
*CONN
*I *600:D I *D sky130_fd_sc_hd__dfrtp_1
*I *583:X O *D sky130_fd_sc_hd__a31o_1
*CAP
1 *600:D 0.00042801
2 *583:X 0.00042801
3 *600:D *535:A1 0.00010979
4 *600:D *579:A 0
5 *600:D *582:A 5.56995e-05
6 *600:D *584:CLK 0